
---------- Begin Simulation Statistics ----------
sim_seconds                                  0.026624                       # Number of seconds simulated
sim_ticks                                 26624318000                       # Number of ticks simulated
final_tick                                26624318000                       # Number of ticks from beginning of simulation (restored from checkpoints and never reset)
sim_freq                                 1000000000000                       # Frequency of simulated ticks
host_inst_rate                                 242287                       # Simulator instruction rate (inst/s)
host_op_rate                                   268241                       # Simulator op (including micro ops) rate (op/s)
host_tick_rate                              102500218                       # Simulator tick rate (ticks/s)
host_mem_usage                                 677616                       # Number of bytes of host memory used
host_seconds                                   259.75                       # Real time elapsed on the host
sim_insts                                    62933774                       # Number of instructions simulated
sim_ops                                      69675317                       # Number of ops (including micro ops) simulated
system.voltage_domain.voltage                       1                       # Voltage in Volts
system.clk_domain.clock                          1000                       # Clock period in ticks
system.physmem.pwrStateResidencyTicks::UNDEFINED  26624318000                       # Cumulative time (in ticks) in various power states
system.physmem.bytes_read::cpu0.inst            48000                       # Number of bytes read from this memory
system.physmem.bytes_read::cpu0.data            28416                       # Number of bytes read from this memory
system.physmem.bytes_read::cpu1.inst             4992                       # Number of bytes read from this memory
system.physmem.bytes_read::cpu1.data             7296                       # Number of bytes read from this memory
system.physmem.bytes_read::cpu2.inst             3584                       # Number of bytes read from this memory
system.physmem.bytes_read::cpu2.data             7040                       # Number of bytes read from this memory
system.physmem.bytes_read::total                99328                       # Number of bytes read from this memory
system.physmem.bytes_inst_read::cpu0.inst        48000                       # Number of instructions bytes read from this memory
system.physmem.bytes_inst_read::cpu1.inst         4992                       # Number of instructions bytes read from this memory
system.physmem.bytes_inst_read::cpu2.inst         3584                       # Number of instructions bytes read from this memory
system.physmem.bytes_inst_read::total           56576                       # Number of instructions bytes read from this memory
system.physmem.num_reads::cpu0.inst               750                       # Number of read requests responded to by this memory
system.physmem.num_reads::cpu0.data               444                       # Number of read requests responded to by this memory
system.physmem.num_reads::cpu1.inst                78                       # Number of read requests responded to by this memory
system.physmem.num_reads::cpu1.data               114                       # Number of read requests responded to by this memory
system.physmem.num_reads::cpu2.inst                56                       # Number of read requests responded to by this memory
system.physmem.num_reads::cpu2.data               110                       # Number of read requests responded to by this memory
system.physmem.num_reads::total                  1552                       # Number of read requests responded to by this memory
system.physmem.bw_read::cpu0.inst             1802863                       # Total read bandwidth from this memory (bytes/s)
system.physmem.bw_read::cpu0.data             1067295                       # Total read bandwidth from this memory (bytes/s)
system.physmem.bw_read::cpu1.inst              187498                       # Total read bandwidth from this memory (bytes/s)
system.physmem.bw_read::cpu1.data              274035                       # Total read bandwidth from this memory (bytes/s)
system.physmem.bw_read::cpu2.inst              134614                       # Total read bandwidth from this memory (bytes/s)
system.physmem.bw_read::cpu2.data              264420                       # Total read bandwidth from this memory (bytes/s)
system.physmem.bw_read::total                 3730725                       # Total read bandwidth from this memory (bytes/s)
system.physmem.bw_inst_read::cpu0.inst        1802863                       # Instruction read bandwidth from this memory (bytes/s)
system.physmem.bw_inst_read::cpu1.inst         187498                       # Instruction read bandwidth from this memory (bytes/s)
system.physmem.bw_inst_read::cpu2.inst         134614                       # Instruction read bandwidth from this memory (bytes/s)
system.physmem.bw_inst_read::total            2124975                       # Instruction read bandwidth from this memory (bytes/s)
system.physmem.bw_total::cpu0.inst            1802863                       # Total bandwidth to/from this memory (bytes/s)
system.physmem.bw_total::cpu0.data            1067295                       # Total bandwidth to/from this memory (bytes/s)
system.physmem.bw_total::cpu1.inst             187498                       # Total bandwidth to/from this memory (bytes/s)
system.physmem.bw_total::cpu1.data             274035                       # Total bandwidth to/from this memory (bytes/s)
system.physmem.bw_total::cpu2.inst             134614                       # Total bandwidth to/from this memory (bytes/s)
system.physmem.bw_total::cpu2.data             264420                       # Total bandwidth to/from this memory (bytes/s)
system.physmem.bw_total::total                3730725                       # Total bandwidth to/from this memory (bytes/s)
system.pwrStateResidencyTicks::UNDEFINED  26624318000                       # Cumulative time (in ticks) in various power states
system.cpu0.branchPred.lookups                7161707                       # Number of BP lookups
system.cpu0.branchPred.condPredicted          6233798                       # Number of conditional branches predicted
system.cpu0.branchPred.condIncorrect           129132                       # Number of conditional branches incorrect
system.cpu0.branchPred.BTBLookups             5555352                       # Number of BTB lookups
system.cpu0.branchPred.BTBHits                5413796                       # Number of BTB hits
system.cpu0.branchPred.BTBCorrect                   0                       # Number of correct BTB predictions (this stat may not work properly.
system.cpu0.branchPred.BTBHitPct            97.451899                       # BTB Hit Percentage
system.cpu0.branchPred.usedRAS                 381761                       # Number of times the RAS was used to get a target.
system.cpu0.branchPred.RASInCorrect             17465                       # Number of incorrect RAS predictions.
system.cpu0.branchPred.indirectLookups          68904                       # Number of indirect predictor lookups.
system.cpu0.branchPred.indirectHits             64070                       # Number of indirect target hits.
system.cpu0.branchPred.indirectMisses            4834                       # Number of indirect misses.
system.cpu0.branchPredindirectMispredicted         3796                       # Number of mispredicted indirect branches.
system.cpu0.dstage2_mmu.stage2_tlb.walker.pwrStateResidencyTicks::UNDEFINED  26624318000                       # Cumulative time (in ticks) in various power states
system.cpu0.dstage2_mmu.stage2_tlb.walker.walks            0                       # Table walker walks requested
system.cpu0.dstage2_mmu.stage2_tlb.walker.walkRequestOrigin_Requested::Data            0                       # Table walker requests started/completed, data/inst
system.cpu0.dstage2_mmu.stage2_tlb.walker.walkRequestOrigin_Requested::Inst            0                       # Table walker requests started/completed, data/inst
system.cpu0.dstage2_mmu.stage2_tlb.walker.walkRequestOrigin_Requested::total            0                       # Table walker requests started/completed, data/inst
system.cpu0.dstage2_mmu.stage2_tlb.walker.walkRequestOrigin_Completed::Data            0                       # Table walker requests started/completed, data/inst
system.cpu0.dstage2_mmu.stage2_tlb.walker.walkRequestOrigin_Completed::Inst            0                       # Table walker requests started/completed, data/inst
system.cpu0.dstage2_mmu.stage2_tlb.walker.walkRequestOrigin_Completed::total            0                       # Table walker requests started/completed, data/inst
system.cpu0.dstage2_mmu.stage2_tlb.walker.walkRequestOrigin::total            0                       # Table walker requests started/completed, data/inst
system.cpu0.dstage2_mmu.stage2_tlb.inst_hits            0                       # ITB inst hits
system.cpu0.dstage2_mmu.stage2_tlb.inst_misses            0                       # ITB inst misses
system.cpu0.dstage2_mmu.stage2_tlb.read_hits            0                       # DTB read hits
system.cpu0.dstage2_mmu.stage2_tlb.read_misses            0                       # DTB read misses
system.cpu0.dstage2_mmu.stage2_tlb.write_hits            0                       # DTB write hits
system.cpu0.dstage2_mmu.stage2_tlb.write_misses            0                       # DTB write misses
system.cpu0.dstage2_mmu.stage2_tlb.flush_tlb            0                       # Number of times complete TLB was flushed
system.cpu0.dstage2_mmu.stage2_tlb.flush_tlb_mva            0                       # Number of times TLB was flushed by MVA
system.cpu0.dstage2_mmu.stage2_tlb.flush_tlb_mva_asid            0                       # Number of times TLB was flushed by MVA & ASID
system.cpu0.dstage2_mmu.stage2_tlb.flush_tlb_asid            0                       # Number of times TLB was flushed by ASID
system.cpu0.dstage2_mmu.stage2_tlb.flush_entries            0                       # Number of entries that have been flushed from TLB
system.cpu0.dstage2_mmu.stage2_tlb.align_faults            0                       # Number of TLB faults due to alignment restrictions
system.cpu0.dstage2_mmu.stage2_tlb.prefetch_faults            0                       # Number of TLB faults due to prefetch
system.cpu0.dstage2_mmu.stage2_tlb.domain_faults            0                       # Number of TLB faults due to domain restrictions
system.cpu0.dstage2_mmu.stage2_tlb.perms_faults            0                       # Number of TLB faults due to permissions restrictions
system.cpu0.dstage2_mmu.stage2_tlb.read_accesses            0                       # DTB read accesses
system.cpu0.dstage2_mmu.stage2_tlb.write_accesses            0                       # DTB write accesses
system.cpu0.dstage2_mmu.stage2_tlb.inst_accesses            0                       # ITB inst accesses
system.cpu0.dstage2_mmu.stage2_tlb.hits             0                       # DTB hits
system.cpu0.dstage2_mmu.stage2_tlb.misses            0                       # DTB misses
system.cpu0.dstage2_mmu.stage2_tlb.accesses            0                       # DTB accesses
system.cpu0.dtb.walker.pwrStateResidencyTicks::UNDEFINED  26624318000                       # Cumulative time (in ticks) in various power states
system.cpu0.dtb.walker.walks                        0                       # Table walker walks requested
system.cpu0.dtb.walker.walkRequestOrigin_Requested::Data            0                       # Table walker requests started/completed, data/inst
system.cpu0.dtb.walker.walkRequestOrigin_Requested::Inst            0                       # Table walker requests started/completed, data/inst
system.cpu0.dtb.walker.walkRequestOrigin_Requested::total            0                       # Table walker requests started/completed, data/inst
system.cpu0.dtb.walker.walkRequestOrigin_Completed::Data            0                       # Table walker requests started/completed, data/inst
system.cpu0.dtb.walker.walkRequestOrigin_Completed::Inst            0                       # Table walker requests started/completed, data/inst
system.cpu0.dtb.walker.walkRequestOrigin_Completed::total            0                       # Table walker requests started/completed, data/inst
system.cpu0.dtb.walker.walkRequestOrigin::total            0                       # Table walker requests started/completed, data/inst
system.cpu0.dtb.inst_hits                           0                       # ITB inst hits
system.cpu0.dtb.inst_misses                         0                       # ITB inst misses
system.cpu0.dtb.read_hits                           0                       # DTB read hits
system.cpu0.dtb.read_misses                         0                       # DTB read misses
system.cpu0.dtb.write_hits                          0                       # DTB write hits
system.cpu0.dtb.write_misses                        0                       # DTB write misses
system.cpu0.dtb.flush_tlb                           0                       # Number of times complete TLB was flushed
system.cpu0.dtb.flush_tlb_mva                       0                       # Number of times TLB was flushed by MVA
system.cpu0.dtb.flush_tlb_mva_asid                  0                       # Number of times TLB was flushed by MVA & ASID
system.cpu0.dtb.flush_tlb_asid                      0                       # Number of times TLB was flushed by ASID
system.cpu0.dtb.flush_entries                       0                       # Number of entries that have been flushed from TLB
system.cpu0.dtb.align_faults                        0                       # Number of TLB faults due to alignment restrictions
system.cpu0.dtb.prefetch_faults                     0                       # Number of TLB faults due to prefetch
system.cpu0.dtb.domain_faults                       0                       # Number of TLB faults due to domain restrictions
system.cpu0.dtb.perms_faults                        0                       # Number of TLB faults due to permissions restrictions
system.cpu0.dtb.read_accesses                       0                       # DTB read accesses
system.cpu0.dtb.write_accesses                      0                       # DTB write accesses
system.cpu0.dtb.inst_accesses                       0                       # ITB inst accesses
system.cpu0.dtb.hits                                0                       # DTB hits
system.cpu0.dtb.misses                              0                       # DTB misses
system.cpu0.dtb.accesses                            0                       # DTB accesses
system.cpu0.istage2_mmu.stage2_tlb.walker.pwrStateResidencyTicks::UNDEFINED  26624318000                       # Cumulative time (in ticks) in various power states
system.cpu0.istage2_mmu.stage2_tlb.walker.walks            0                       # Table walker walks requested
system.cpu0.istage2_mmu.stage2_tlb.walker.walkRequestOrigin_Requested::Data            0                       # Table walker requests started/completed, data/inst
system.cpu0.istage2_mmu.stage2_tlb.walker.walkRequestOrigin_Requested::Inst            0                       # Table walker requests started/completed, data/inst
system.cpu0.istage2_mmu.stage2_tlb.walker.walkRequestOrigin_Requested::total            0                       # Table walker requests started/completed, data/inst
system.cpu0.istage2_mmu.stage2_tlb.walker.walkRequestOrigin_Completed::Data            0                       # Table walker requests started/completed, data/inst
system.cpu0.istage2_mmu.stage2_tlb.walker.walkRequestOrigin_Completed::Inst            0                       # Table walker requests started/completed, data/inst
system.cpu0.istage2_mmu.stage2_tlb.walker.walkRequestOrigin_Completed::total            0                       # Table walker requests started/completed, data/inst
system.cpu0.istage2_mmu.stage2_tlb.walker.walkRequestOrigin::total            0                       # Table walker requests started/completed, data/inst
system.cpu0.istage2_mmu.stage2_tlb.inst_hits            0                       # ITB inst hits
system.cpu0.istage2_mmu.stage2_tlb.inst_misses            0                       # ITB inst misses
system.cpu0.istage2_mmu.stage2_tlb.read_hits            0                       # DTB read hits
system.cpu0.istage2_mmu.stage2_tlb.read_misses            0                       # DTB read misses
system.cpu0.istage2_mmu.stage2_tlb.write_hits            0                       # DTB write hits
system.cpu0.istage2_mmu.stage2_tlb.write_misses            0                       # DTB write misses
system.cpu0.istage2_mmu.stage2_tlb.flush_tlb            0                       # Number of times complete TLB was flushed
system.cpu0.istage2_mmu.stage2_tlb.flush_tlb_mva            0                       # Number of times TLB was flushed by MVA
system.cpu0.istage2_mmu.stage2_tlb.flush_tlb_mva_asid            0                       # Number of times TLB was flushed by MVA & ASID
system.cpu0.istage2_mmu.stage2_tlb.flush_tlb_asid            0                       # Number of times TLB was flushed by ASID
system.cpu0.istage2_mmu.stage2_tlb.flush_entries            0                       # Number of entries that have been flushed from TLB
system.cpu0.istage2_mmu.stage2_tlb.align_faults            0                       # Number of TLB faults due to alignment restrictions
system.cpu0.istage2_mmu.stage2_tlb.prefetch_faults            0                       # Number of TLB faults due to prefetch
system.cpu0.istage2_mmu.stage2_tlb.domain_faults            0                       # Number of TLB faults due to domain restrictions
system.cpu0.istage2_mmu.stage2_tlb.perms_faults            0                       # Number of TLB faults due to permissions restrictions
system.cpu0.istage2_mmu.stage2_tlb.read_accesses            0                       # DTB read accesses
system.cpu0.istage2_mmu.stage2_tlb.write_accesses            0                       # DTB write accesses
system.cpu0.istage2_mmu.stage2_tlb.inst_accesses            0                       # ITB inst accesses
system.cpu0.istage2_mmu.stage2_tlb.hits             0                       # DTB hits
system.cpu0.istage2_mmu.stage2_tlb.misses            0                       # DTB misses
system.cpu0.istage2_mmu.stage2_tlb.accesses            0                       # DTB accesses
system.cpu0.itb.walker.pwrStateResidencyTicks::UNDEFINED  26624318000                       # Cumulative time (in ticks) in various power states
system.cpu0.itb.walker.walks                        0                       # Table walker walks requested
system.cpu0.itb.walker.walkRequestOrigin_Requested::Data            0                       # Table walker requests started/completed, data/inst
system.cpu0.itb.walker.walkRequestOrigin_Requested::Inst            0                       # Table walker requests started/completed, data/inst
system.cpu0.itb.walker.walkRequestOrigin_Requested::total            0                       # Table walker requests started/completed, data/inst
system.cpu0.itb.walker.walkRequestOrigin_Completed::Data            0                       # Table walker requests started/completed, data/inst
system.cpu0.itb.walker.walkRequestOrigin_Completed::Inst            0                       # Table walker requests started/completed, data/inst
system.cpu0.itb.walker.walkRequestOrigin_Completed::total            0                       # Table walker requests started/completed, data/inst
system.cpu0.itb.walker.walkRequestOrigin::total            0                       # Table walker requests started/completed, data/inst
system.cpu0.itb.inst_hits                           0                       # ITB inst hits
system.cpu0.itb.inst_misses                         0                       # ITB inst misses
system.cpu0.itb.read_hits                           0                       # DTB read hits
system.cpu0.itb.read_misses                         0                       # DTB read misses
system.cpu0.itb.write_hits                          0                       # DTB write hits
system.cpu0.itb.write_misses                        0                       # DTB write misses
system.cpu0.itb.flush_tlb                           0                       # Number of times complete TLB was flushed
system.cpu0.itb.flush_tlb_mva                       0                       # Number of times TLB was flushed by MVA
system.cpu0.itb.flush_tlb_mva_asid                  0                       # Number of times TLB was flushed by MVA & ASID
system.cpu0.itb.flush_tlb_asid                      0                       # Number of times TLB was flushed by ASID
system.cpu0.itb.flush_entries                       0                       # Number of entries that have been flushed from TLB
system.cpu0.itb.align_faults                        0                       # Number of TLB faults due to alignment restrictions
system.cpu0.itb.prefetch_faults                     0                       # Number of TLB faults due to prefetch
system.cpu0.itb.domain_faults                       0                       # Number of TLB faults due to domain restrictions
system.cpu0.itb.perms_faults                        0                       # Number of TLB faults due to permissions restrictions
system.cpu0.itb.read_accesses                       0                       # DTB read accesses
system.cpu0.itb.write_accesses                      0                       # DTB write accesses
system.cpu0.itb.inst_accesses                       0                       # ITB inst accesses
system.cpu0.itb.hits                                0                       # DTB hits
system.cpu0.itb.misses                              0                       # DTB misses
system.cpu0.itb.accesses                            0                       # DTB accesses
system.cpu0.workload.num_syscalls                  74                       # Number of system calls
system.cpu0.pwrStateResidencyTicks::ON    26624318000                       # Cumulative time (in ticks) in various power states
system.cpu0.numCycles                        26624319                       # number of cpu cycles simulated
system.cpu0.numWorkItemsStarted                     0                       # number of work items this cpu started
system.cpu0.numWorkItemsCompleted                   0                       # number of work items this cpu completed
system.cpu0.fetch.icacheStallCycles           2951943                       # Number of cycles fetch is stalled on an Icache miss
system.cpu0.fetch.Insts                      37815883                       # Number of instructions fetch has processed
system.cpu0.fetch.Branches                    7161707                       # Number of branches that fetch encountered
system.cpu0.fetch.predictedBranches           5859627                       # Number of branches that fetch has predicted taken
system.cpu0.fetch.Cycles                     23518517                       # Number of cycles fetch has run and was not squashing or blocked
system.cpu0.fetch.SquashCycles                 260913                       # Number of cycles fetch has spent squashing
system.cpu0.fetch.MiscStallCycles                   1                       # Number of cycles fetch has spent waiting on interrupts, or bad addresses, or out of MSHRs
system.cpu0.fetch.PendingTrapStallCycles          152                       # Number of stall cycles due to pending traps
system.cpu0.fetch.IcacheWaitRetryStallCycles           11                       # Number of stall cycles due to full MSHR
system.cpu0.fetch.CacheLines                  2367404                       # Number of cache lines fetched
system.cpu0.fetch.IcacheSquashes                25067                       # Number of outstanding Icache misses that were squashed
system.cpu0.fetch.rateDist::samples          26601080                       # Number of instructions fetched each cycle (Total)
system.cpu0.fetch.rateDist::mean             1.525269                       # Number of instructions fetched each cycle (Total)
system.cpu0.fetch.rateDist::stdev            0.717865                       # Number of instructions fetched each cycle (Total)
system.cpu0.fetch.rateDist::underflows              0      0.00%      0.00% # Number of instructions fetched each cycle (Total)
system.cpu0.fetch.rateDist::0                 3537530     13.30%     13.30% # Number of instructions fetched each cycle (Total)
system.cpu0.fetch.rateDist::1                 5553297     20.88%     34.17% # Number of instructions fetched each cycle (Total)
system.cpu0.fetch.rateDist::2                17510253     65.83%    100.00% # Number of instructions fetched each cycle (Total)
system.cpu0.fetch.rateDist::overflows               0      0.00%    100.00% # Number of instructions fetched each cycle (Total)
system.cpu0.fetch.rateDist::min_value               0                       # Number of instructions fetched each cycle (Total)
system.cpu0.fetch.rateDist::max_value               2                       # Number of instructions fetched each cycle (Total)
system.cpu0.fetch.rateDist::total            26601080                       # Number of instructions fetched each cycle (Total)
system.cpu0.fetch.branchRate                 0.268991                       # Number of branch fetches per cycle
system.cpu0.fetch.rate                       1.420351                       # Number of inst fetches per cycle
system.cpu0.decode.IdleCycles                 2881232                       # Number of cycles decode is idle
system.cpu0.decode.BlockedCycles               981097                       # Number of cycles decode is blocked
system.cpu0.decode.RunCycles                 21747282                       # Number of cycles decode is running
system.cpu0.decode.UnblockCycles               873359                       # Number of cycles decode is unblocking
system.cpu0.decode.SquashCycles                118110                       # Number of cycles decode is squashing
system.cpu0.decode.BranchResolved              529809                       # Number of times decode resolved a branch
system.cpu0.decode.BranchMispred                12587                       # Number of times decode detected a branch misprediction
system.cpu0.decode.DecodedInsts              39952175                       # Number of instructions handled by decode
system.cpu0.decode.SquashedInsts                16329                       # Number of squashed instructions handled by decode
system.cpu0.rename.SquashCycles                118110                       # Number of cycles rename is squashing
system.cpu0.rename.IdleCycles                 3039608                       # Number of cycles rename is idle
system.cpu0.rename.BlockCycles                 339256                       # Number of cycles rename is blocking
system.cpu0.rename.serializeStallCycles        142027                       # count of cycles rename stalled for serializing inst
system.cpu0.rename.RunCycles                 22454153                       # Number of cycles rename is running
system.cpu0.rename.UnblockCycles               507926                       # Number of cycles rename is unblocking
system.cpu0.rename.RenamedInsts              39780119                       # Number of instructions processed by rename
system.cpu0.rename.IQFullEvents                439096                       # Number of times rename has blocked due to IQ full
system.cpu0.rename.SQFullEvents                   260                       # Number of times rename has blocked due to SQ full
system.cpu0.rename.RenamedOperands           45705161                       # Number of destination operands rename has renamed
system.cpu0.rename.RenameLookups            184164280                       # Number of register rename lookups that rename has made
system.cpu0.rename.int_rename_lookups        46040875                       # Number of integer rename lookups
system.cpu0.rename.fp_rename_lookups               16                       # Number of floating rename lookups
system.cpu0.rename.CommittedMaps             40665466                       # Number of HB maps that are committed
system.cpu0.rename.UndoneMaps                 5039695                       # Number of HB maps that are undone due to squashing
system.cpu0.rename.serializingInsts             10594                       # count of serializing insts renamed
system.cpu0.rename.tempSerializingInsts          3161                       # count of temporary serializing insts renamed
system.cpu0.rename.skidInsts                   541533                       # count of insts added to the skid buffer
system.cpu0.memDep0.insertedLoads            10408156                       # Number of loads inserted to the mem dependence unit.
system.cpu0.memDep0.insertedStores            5954504                       # Number of stores inserted to the mem dependence unit.
system.cpu0.memDep0.conflictingLoads          4286430                       # Number of conflicting loads.
system.cpu0.memDep0.conflictingStores         4447013                       # Number of conflicting stores.
system.cpu0.iq.iqInstsAdded                  39435674                       # Number of instructions added to the IQ (excludes non-spec)
system.cpu0.iq.iqNonSpecInstsAdded               5114                       # Number of non-speculative instructions added to the IQ
system.cpu0.iq.iqInstsIssued                 36851013                       # Number of instructions issued
system.cpu0.iq.iqSquashedInstsIssued           422376                       # Number of squashed instructions issued
system.cpu0.iq.iqSquashedInstsExamined        3146412                       # Number of squashed instructions iterated over during squash; mainly for profiling
system.cpu0.iq.iqSquashedOperandsExamined     12609387                       # Number of squashed operands that are examined and possibly removed from graph
system.cpu0.iq.iqSquashedNonSpecRemoved            35                       # Number of squashed non-spec instructions that were removed
system.cpu0.iq.issued_per_cycle::samples     26601080                       # Number of insts issued each cycle
system.cpu0.iq.issued_per_cycle::mean        1.385320                       # Number of insts issued each cycle
system.cpu0.iq.issued_per_cycle::stdev       0.591102                       # Number of insts issued each cycle
system.cpu0.iq.issued_per_cycle::underflows            0      0.00%      0.00% # Number of insts issued each cycle
system.cpu0.iq.issued_per_cycle::0            1497021      5.63%      5.63% # Number of insts issued each cycle
system.cpu0.iq.issued_per_cycle::1           13357105     50.21%     55.84% # Number of insts issued each cycle
system.cpu0.iq.issued_per_cycle::2           11746954     44.16%    100.00% # Number of insts issued each cycle
system.cpu0.iq.issued_per_cycle::overflows            0      0.00%    100.00% # Number of insts issued each cycle
system.cpu0.iq.issued_per_cycle::min_value            0                       # Number of insts issued each cycle
system.cpu0.iq.issued_per_cycle::max_value            2                       # Number of insts issued each cycle
system.cpu0.iq.issued_per_cycle::total       26601080                       # Number of insts issued each cycle
system.cpu0.iq.fu_full::No_OpClass                  0      0.00%      0.00% # attempts to use FU when none available
system.cpu0.iq.fu_full::IntAlu                8756481     71.04%     71.04% # attempts to use FU when none available
system.cpu0.iq.fu_full::IntMult                     0      0.00%     71.04% # attempts to use FU when none available
system.cpu0.iq.fu_full::IntDiv                      0      0.00%     71.04% # attempts to use FU when none available
system.cpu0.iq.fu_full::FloatAdd                    0      0.00%     71.04% # attempts to use FU when none available
system.cpu0.iq.fu_full::FloatCmp                    0      0.00%     71.04% # attempts to use FU when none available
system.cpu0.iq.fu_full::FloatCvt                    0      0.00%     71.04% # attempts to use FU when none available
system.cpu0.iq.fu_full::FloatMult                   0      0.00%     71.04% # attempts to use FU when none available
system.cpu0.iq.fu_full::FloatMultAcc                0      0.00%     71.04% # attempts to use FU when none available
system.cpu0.iq.fu_full::FloatDiv                    0      0.00%     71.04% # attempts to use FU when none available
system.cpu0.iq.fu_full::FloatMisc                   0      0.00%     71.04% # attempts to use FU when none available
system.cpu0.iq.fu_full::FloatSqrt                   0      0.00%     71.04% # attempts to use FU when none available
system.cpu0.iq.fu_full::SimdAdd                     0      0.00%     71.04% # attempts to use FU when none available
system.cpu0.iq.fu_full::SimdAddAcc                  0      0.00%     71.04% # attempts to use FU when none available
system.cpu0.iq.fu_full::SimdAlu                     0      0.00%     71.04% # attempts to use FU when none available
system.cpu0.iq.fu_full::SimdCmp                     0      0.00%     71.04% # attempts to use FU when none available
system.cpu0.iq.fu_full::SimdCvt                     0      0.00%     71.04% # attempts to use FU when none available
system.cpu0.iq.fu_full::SimdMisc                    0      0.00%     71.04% # attempts to use FU when none available
system.cpu0.iq.fu_full::SimdMult                    0      0.00%     71.04% # attempts to use FU when none available
system.cpu0.iq.fu_full::SimdMultAcc                 0      0.00%     71.04% # attempts to use FU when none available
system.cpu0.iq.fu_full::SimdShift                   0      0.00%     71.04% # attempts to use FU when none available
system.cpu0.iq.fu_full::SimdShiftAcc                0      0.00%     71.04% # attempts to use FU when none available
system.cpu0.iq.fu_full::SimdSqrt                    0      0.00%     71.04% # attempts to use FU when none available
system.cpu0.iq.fu_full::SimdFloatAdd                0      0.00%     71.04% # attempts to use FU when none available
system.cpu0.iq.fu_full::SimdFloatAlu                0      0.00%     71.04% # attempts to use FU when none available
system.cpu0.iq.fu_full::SimdFloatCmp                0      0.00%     71.04% # attempts to use FU when none available
system.cpu0.iq.fu_full::SimdFloatCvt                0      0.00%     71.04% # attempts to use FU when none available
system.cpu0.iq.fu_full::SimdFloatDiv                0      0.00%     71.04% # attempts to use FU when none available
system.cpu0.iq.fu_full::SimdFloatMisc               0      0.00%     71.04% # attempts to use FU when none available
system.cpu0.iq.fu_full::SimdFloatMult               0      0.00%     71.04% # attempts to use FU when none available
system.cpu0.iq.fu_full::SimdFloatMultAcc            0      0.00%     71.04% # attempts to use FU when none available
system.cpu0.iq.fu_full::SimdFloatSqrt               0      0.00%     71.04% # attempts to use FU when none available
system.cpu0.iq.fu_full::MemRead               1814956     14.72%     85.76% # attempts to use FU when none available
system.cpu0.iq.fu_full::MemWrite              1755169     14.24%    100.00% # attempts to use FU when none available
system.cpu0.iq.fu_full::FloatMemRead                0      0.00%    100.00% # attempts to use FU when none available
system.cpu0.iq.fu_full::FloatMemWrite               0      0.00%    100.00% # attempts to use FU when none available
system.cpu0.iq.fu_full::IprAccess                   0      0.00%    100.00% # attempts to use FU when none available
system.cpu0.iq.fu_full::InstPrefetch                0      0.00%    100.00% # attempts to use FU when none available
system.cpu0.iq.FU_type_0::No_OpClass                0      0.00%      0.00% # Type of FU issued
system.cpu0.iq.FU_type_0::IntAlu             20450330     55.49%     55.49% # Type of FU issued
system.cpu0.iq.FU_type_0::IntMult              219303      0.60%     56.09% # Type of FU issued
system.cpu0.iq.FU_type_0::IntDiv                    0      0.00%     56.09% # Type of FU issued
system.cpu0.iq.FU_type_0::FloatAdd                  0      0.00%     56.09% # Type of FU issued
system.cpu0.iq.FU_type_0::FloatCmp                  0      0.00%     56.09% # Type of FU issued
system.cpu0.iq.FU_type_0::FloatCvt                  0      0.00%     56.09% # Type of FU issued
system.cpu0.iq.FU_type_0::FloatMult                 0      0.00%     56.09% # Type of FU issued
system.cpu0.iq.FU_type_0::FloatMultAcc              0      0.00%     56.09% # Type of FU issued
system.cpu0.iq.FU_type_0::FloatDiv                  0      0.00%     56.09% # Type of FU issued
system.cpu0.iq.FU_type_0::FloatMisc                 0      0.00%     56.09% # Type of FU issued
system.cpu0.iq.FU_type_0::FloatSqrt                 0      0.00%     56.09% # Type of FU issued
system.cpu0.iq.FU_type_0::SimdAdd                   0      0.00%     56.09% # Type of FU issued
system.cpu0.iq.FU_type_0::SimdAddAcc                0      0.00%     56.09% # Type of FU issued
system.cpu0.iq.FU_type_0::SimdAlu                   0      0.00%     56.09% # Type of FU issued
system.cpu0.iq.FU_type_0::SimdCmp                   0      0.00%     56.09% # Type of FU issued
system.cpu0.iq.FU_type_0::SimdCvt                   0      0.00%     56.09% # Type of FU issued
system.cpu0.iq.FU_type_0::SimdMisc                  0      0.00%     56.09% # Type of FU issued
system.cpu0.iq.FU_type_0::SimdMult                  0      0.00%     56.09% # Type of FU issued
system.cpu0.iq.FU_type_0::SimdMultAcc               0      0.00%     56.09% # Type of FU issued
system.cpu0.iq.FU_type_0::SimdShift                 0      0.00%     56.09% # Type of FU issued
system.cpu0.iq.FU_type_0::SimdShiftAcc              0      0.00%     56.09% # Type of FU issued
system.cpu0.iq.FU_type_0::SimdSqrt                  0      0.00%     56.09% # Type of FU issued
system.cpu0.iq.FU_type_0::SimdFloatAdd              0      0.00%     56.09% # Type of FU issued
system.cpu0.iq.FU_type_0::SimdFloatAlu              0      0.00%     56.09% # Type of FU issued
system.cpu0.iq.FU_type_0::SimdFloatCmp              0      0.00%     56.09% # Type of FU issued
system.cpu0.iq.FU_type_0::SimdFloatCvt              0      0.00%     56.09% # Type of FU issued
system.cpu0.iq.FU_type_0::SimdFloatDiv              0      0.00%     56.09% # Type of FU issued
system.cpu0.iq.FU_type_0::SimdFloatMisc          8131      0.02%     56.11% # Type of FU issued
system.cpu0.iq.FU_type_0::SimdFloatMult             0      0.00%     56.11% # Type of FU issued
system.cpu0.iq.FU_type_0::SimdFloatMultAcc            0      0.00%     56.11% # Type of FU issued
system.cpu0.iq.FU_type_0::SimdFloatSqrt             0      0.00%     56.11% # Type of FU issued
system.cpu0.iq.FU_type_0::MemRead            10350241     28.09%     84.20% # Type of FU issued
system.cpu0.iq.FU_type_0::MemWrite            5822992     15.80%    100.00% # Type of FU issued
system.cpu0.iq.FU_type_0::FloatMemRead              0      0.00%    100.00% # Type of FU issued
system.cpu0.iq.FU_type_0::FloatMemWrite            16      0.00%    100.00% # Type of FU issued
system.cpu0.iq.FU_type_0::IprAccess                 0      0.00%    100.00% # Type of FU issued
system.cpu0.iq.FU_type_0::InstPrefetch              0      0.00%    100.00% # Type of FU issued
system.cpu0.iq.FU_type_0::total              36851013                       # Type of FU issued
system.cpu0.iq.rate                          1.384111                       # Inst issue rate
system.cpu0.iq.fu_busy_cnt                   12326606                       # FU busy when requested
system.cpu0.iq.fu_busy_rate                  0.334498                       # FU busy rate (busy events/executed inst)
system.cpu0.iq.int_inst_queue_reads         113052056                       # Number of integer instruction queue reads
system.cpu0.iq.int_inst_queue_writes         42587422                       # Number of integer instruction queue writes
system.cpu0.iq.int_inst_queue_wakeup_accesses     36710193                       # Number of integer instruction queue wakeup accesses
system.cpu0.iq.fp_inst_queue_reads                 32                       # Number of floating instruction queue reads
system.cpu0.iq.fp_inst_queue_writes                16                       # Number of floating instruction queue writes
system.cpu0.iq.fp_inst_queue_wakeup_accesses           16                       # Number of floating instruction queue wakeup accesses
system.cpu0.iq.int_alu_accesses              49177603                       # Number of integer alu accesses
system.cpu0.iq.fp_alu_accesses                     16                       # Number of floating point alu accesses
system.cpu0.iew.lsq.thread0.forwLoads         4270825                       # Number of loads that had data forwarded from stores
system.cpu0.iew.lsq.thread0.invAddrLoads            0                       # Number of loads ignored due to an invalid address
system.cpu0.iew.lsq.thread0.squashedLoads       249232                       # Number of loads squashed
system.cpu0.iew.lsq.thread0.ignoredResponses           16                       # Number of memory responses ignored because the instruction is squashed
system.cpu0.iew.lsq.thread0.memOrderViolation          240                       # Number of memory ordering violations
system.cpu0.iew.lsq.thread0.squashedStores       189754                       # Number of stores squashed
system.cpu0.iew.lsq.thread0.invAddrSwpfs            0                       # Number of software prefetches ignored due to an invalid address
system.cpu0.iew.lsq.thread0.blockedLoads            0                       # Number of blocked loads due to partial load-store forwarding
system.cpu0.iew.lsq.thread0.rescheduledLoads        74562                       # Number of loads that were rescheduled
system.cpu0.iew.lsq.thread0.cacheBlocked            6                       # Number of times an access to memory failed due to the cache being blocked
system.cpu0.iew.iewIdleCycles                       0                       # Number of cycles IEW is idle
system.cpu0.iew.iewSquashCycles                118110                       # Number of cycles IEW is squashing
system.cpu0.iew.iewBlockCycles                 332754                       # Number of cycles IEW is blocking
system.cpu0.iew.iewUnblockCycles                 9067                       # Number of cycles IEW is unblocking
system.cpu0.iew.iewDispatchedInsts           39440811                       # Number of instructions dispatched to IQ
system.cpu0.iew.iewDispSquashedInsts            25755                       # Number of squashed instructions skipped by dispatch
system.cpu0.iew.iewDispLoadInsts             10408156                       # Number of dispatched load instructions
system.cpu0.iew.iewDispStoreInsts             5954504                       # Number of dispatched store instructions
system.cpu0.iew.iewDispNonSpecInsts              3134                       # Number of dispatched non-speculative instructions
system.cpu0.iew.iewIQFullEvents                     5                       # Number of times the IQ has become full, causing a stall
system.cpu0.iew.iewLSQFullEvents                    0                       # Number of times the LSQ has become full, causing a stall
system.cpu0.iew.memOrderViolationEvents           240                       # Number of memory order violations
system.cpu0.iew.predictedTakenIncorrect         67573                       # Number of branches that were predicted taken incorrectly
system.cpu0.iew.predictedNotTakenIncorrect        53277                       # Number of branches that were predicted not taken incorrectly
system.cpu0.iew.branchMispredicts              120850                       # Number of branch mispredicts detected at execute
system.cpu0.iew.iewExecutedInsts             36807179                       # Number of executed instructions
system.cpu0.iew.iewExecLoadInsts             10335943                       # Number of load instructions executed
system.cpu0.iew.iewExecSquashedInsts            43834                       # Number of squashed instructions skipped in execute
system.cpu0.iew.exec_swp                            0                       # number of swp insts executed
system.cpu0.iew.exec_nop                           23                       # number of nop insts executed
system.cpu0.iew.exec_refs                    16151741                       # number of memory reference insts executed
system.cpu0.iew.exec_branches                 6571318                       # Number of branches executed
system.cpu0.iew.exec_stores                   5815798                       # Number of stores executed
system.cpu0.iew.exec_rate                    1.382465                       # Inst execution rate
system.cpu0.iew.wb_sent                      36713937                       # cumulative count of insts sent to commit
system.cpu0.iew.wb_count                     36710209                       # cumulative count of insts written-back
system.cpu0.iew.wb_producers                 22985690                       # num instructions producing a value
system.cpu0.iew.wb_consumers                 37528119                       # num instructions consuming a value
system.cpu0.iew.wb_rate                      1.378822                       # insts written-back per cycle
system.cpu0.iew.wb_fanout                    0.612492                       # average fanout of values written-back
system.cpu0.commit.commitSquashedInsts        3146398                       # The number of squashed insts skipped by commit
system.cpu0.commit.commitNonSpecStalls           5079                       # The number of times commit has been forced to stall to communicate backwards
system.cpu0.commit.branchMispredicts           116786                       # The number of times a branch was mispredicted
system.cpu0.commit.committed_per_cycle::samples     26150265                       # Number of insts commited each cycle
system.cpu0.commit.committed_per_cycle::mean     1.387916                       # Number of insts commited each cycle
system.cpu0.commit.committed_per_cycle::stdev     1.189497                       # Number of insts commited each cycle
system.cpu0.commit.committed_per_cycle::underflows            0      0.00%      0.00% # Number of insts commited each cycle
system.cpu0.commit.committed_per_cycle::0      3555075     13.59%     13.59% # Number of insts commited each cycle
system.cpu0.commit.committed_per_cycle::1     16238128     62.10%     75.69% # Number of insts commited each cycle
system.cpu0.commit.committed_per_cycle::2      2689802     10.29%     85.98% # Number of insts commited each cycle
system.cpu0.commit.committed_per_cycle::3       428362      1.64%     87.61% # Number of insts commited each cycle
system.cpu0.commit.committed_per_cycle::4      3035903     11.61%     99.22% # Number of insts commited each cycle
system.cpu0.commit.committed_per_cycle::5        82322      0.31%     99.54% # Number of insts commited each cycle
system.cpu0.commit.committed_per_cycle::6        50591      0.19%     99.73% # Number of insts commited each cycle
system.cpu0.commit.committed_per_cycle::7        27866      0.11%     99.84% # Number of insts commited each cycle
system.cpu0.commit.committed_per_cycle::8        42216      0.16%    100.00% # Number of insts commited each cycle
system.cpu0.commit.committed_per_cycle::overflows            0      0.00%    100.00% # Number of insts commited each cycle
system.cpu0.commit.committed_per_cycle::min_value            0                       # Number of insts commited each cycle
system.cpu0.commit.committed_per_cycle::max_value            8                       # Number of insts commited each cycle
system.cpu0.commit.committed_per_cycle::total     26150265                       # Number of insts commited each cycle
system.cpu0.commit.committedInsts            34131649                       # Number of instructions committed
system.cpu0.commit.committedOps              36294376                       # Number of ops (including micro ops) committed
system.cpu0.commit.swp_count                        0                       # Number of s/w prefetches committed
system.cpu0.commit.refs                      15923674                       # Number of memory references committed
system.cpu0.commit.loads                     10158924                       # Number of loads committed
system.cpu0.commit.membars                       1980                       # Number of memory barriers committed
system.cpu0.commit.branches                   6524710                       # Number of branches committed
system.cpu0.commit.fp_insts                        16                       # Number of committed floating point instructions.
system.cpu0.commit.int_insts                 30570903                       # Number of committed integer instructions.
system.cpu0.commit.function_calls              368161                       # Number of function calls committed.
system.cpu0.commit.op_class_0::No_OpClass            0      0.00%      0.00% # Class of committed instruction
system.cpu0.commit.op_class_0::IntAlu        20152898     55.53%     55.53% # Class of committed instruction
system.cpu0.commit.op_class_0::IntMult         209673      0.58%     56.10% # Class of committed instruction
system.cpu0.commit.op_class_0::IntDiv               0      0.00%     56.10% # Class of committed instruction
system.cpu0.commit.op_class_0::FloatAdd             0      0.00%     56.10% # Class of committed instruction
system.cpu0.commit.op_class_0::FloatCmp             0      0.00%     56.10% # Class of committed instruction
system.cpu0.commit.op_class_0::FloatCvt             0      0.00%     56.10% # Class of committed instruction
system.cpu0.commit.op_class_0::FloatMult            0      0.00%     56.10% # Class of committed instruction
system.cpu0.commit.op_class_0::FloatMultAcc            0      0.00%     56.10% # Class of committed instruction
system.cpu0.commit.op_class_0::FloatDiv             0      0.00%     56.10% # Class of committed instruction
system.cpu0.commit.op_class_0::FloatMisc            0      0.00%     56.10% # Class of committed instruction
system.cpu0.commit.op_class_0::FloatSqrt            0      0.00%     56.10% # Class of committed instruction
system.cpu0.commit.op_class_0::SimdAdd              0      0.00%     56.10% # Class of committed instruction
system.cpu0.commit.op_class_0::SimdAddAcc            0      0.00%     56.10% # Class of committed instruction
system.cpu0.commit.op_class_0::SimdAlu              0      0.00%     56.10% # Class of committed instruction
system.cpu0.commit.op_class_0::SimdCmp              0      0.00%     56.10% # Class of committed instruction
system.cpu0.commit.op_class_0::SimdCvt              0      0.00%     56.10% # Class of committed instruction
system.cpu0.commit.op_class_0::SimdMisc             0      0.00%     56.10% # Class of committed instruction
system.cpu0.commit.op_class_0::SimdMult             0      0.00%     56.10% # Class of committed instruction
system.cpu0.commit.op_class_0::SimdMultAcc            0      0.00%     56.10% # Class of committed instruction
system.cpu0.commit.op_class_0::SimdShift            0      0.00%     56.10% # Class of committed instruction
system.cpu0.commit.op_class_0::SimdShiftAcc            0      0.00%     56.10% # Class of committed instruction
system.cpu0.commit.op_class_0::SimdSqrt             0      0.00%     56.10% # Class of committed instruction
system.cpu0.commit.op_class_0::SimdFloatAdd            0      0.00%     56.10% # Class of committed instruction
system.cpu0.commit.op_class_0::SimdFloatAlu            0      0.00%     56.10% # Class of committed instruction
system.cpu0.commit.op_class_0::SimdFloatCmp            0      0.00%     56.10% # Class of committed instruction
system.cpu0.commit.op_class_0::SimdFloatCvt            0      0.00%     56.10% # Class of committed instruction
system.cpu0.commit.op_class_0::SimdFloatDiv            0      0.00%     56.10% # Class of committed instruction
system.cpu0.commit.op_class_0::SimdFloatMisc         8131      0.02%     56.13% # Class of committed instruction
system.cpu0.commit.op_class_0::SimdFloatMult            0      0.00%     56.13% # Class of committed instruction
system.cpu0.commit.op_class_0::SimdFloatMultAcc            0      0.00%     56.13% # Class of committed instruction
system.cpu0.commit.op_class_0::SimdFloatSqrt            0      0.00%     56.13% # Class of committed instruction
system.cpu0.commit.op_class_0::MemRead       10158924     27.99%     84.12% # Class of committed instruction
system.cpu0.commit.op_class_0::MemWrite       5764734     15.88%    100.00% # Class of committed instruction
system.cpu0.commit.op_class_0::FloatMemRead            0      0.00%    100.00% # Class of committed instruction
system.cpu0.commit.op_class_0::FloatMemWrite           16      0.00%    100.00% # Class of committed instruction
system.cpu0.commit.op_class_0::IprAccess            0      0.00%    100.00% # Class of committed instruction
system.cpu0.commit.op_class_0::InstPrefetch            0      0.00%    100.00% # Class of committed instruction
system.cpu0.commit.op_class_0::total         36294376                       # Class of committed instruction
system.cpu0.commit.bw_lim_events                42216                       # number cycles where commit BW limit reached
system.cpu0.rob.rob_reads                    65547269                       # The number of ROB reads
system.cpu0.rob.rob_writes                   79333447                       # The number of ROB writes
system.cpu0.timesIdled                           1267                       # Number of times that the entire CPU went into an idle state and unscheduled itself
system.cpu0.idleCycles                          23239                       # Total number of cycles that the CPU has spent unscheduled due to idling
system.cpu0.committedInsts                   34131649                       # Number of Instructions Simulated
system.cpu0.committedOps                     36294376                       # Number of Ops (including micro ops) Simulated
system.cpu0.cpi                              0.780048                       # CPI: Cycles Per Instruction
system.cpu0.cpi_total                        0.780048                       # CPI: Total CPI of All Threads
system.cpu0.ipc                              1.281973                       # IPC: Instructions Per Cycle
system.cpu0.ipc_total                        1.281973                       # IPC: Total IPC of All Threads
system.cpu0.int_regfile_reads                40715083                       # number of integer regfile reads
system.cpu0.int_regfile_writes               19672356                       # number of integer regfile writes
system.cpu0.fp_regfile_reads                      336                       # number of floating regfile reads
system.cpu0.cc_regfile_reads                141344486                       # number of cc regfile reads
system.cpu0.cc_regfile_writes                21320481                       # number of cc regfile writes
system.cpu0.misc_regfile_reads               16081860                       # number of misc regfile reads
system.cpu0.misc_regfile_writes                  5059                       # number of misc regfile writes
system.cpu0.dcache.tags.pwrStateResidencyTicks::UNDEFINED  26624318000                       # Cumulative time (in ticks) in various power states
system.cpu0.dcache.tags.replacements              298                       # number of replacements
system.cpu0.dcache.tags.tagsinuse          312.537861                       # Cycle average of tags in use
system.cpu0.dcache.tags.total_refs           11623575                       # Total number of references to valid blocks.
system.cpu0.dcache.tags.sampled_refs              742                       # Sample count of references to valid blocks.
system.cpu0.dcache.tags.avg_refs         15665.195418                       # Average number of references to valid blocks.
system.cpu0.dcache.tags.warmup_cycle                0                       # Cycle when the warmup percentage was hit.
system.cpu0.dcache.tags.occ_blocks::cpu0.data   312.537861                       # Average occupied blocks per requestor
system.cpu0.dcache.tags.occ_percent::cpu0.data     0.610426                       # Average percentage of cache occupancy
system.cpu0.dcache.tags.occ_percent::total     0.610426                       # Average percentage of cache occupancy
system.cpu0.dcache.tags.occ_task_id_blocks::1024          444                       # Occupied blocks per task id
system.cpu0.dcache.tags.age_task_id_blocks_1024::0           36                       # Occupied blocks per task id
system.cpu0.dcache.tags.age_task_id_blocks_1024::1            3                       # Occupied blocks per task id
system.cpu0.dcache.tags.age_task_id_blocks_1024::2           44                       # Occupied blocks per task id
system.cpu0.dcache.tags.age_task_id_blocks_1024::3          114                       # Occupied blocks per task id
system.cpu0.dcache.tags.age_task_id_blocks_1024::4          247                       # Occupied blocks per task id
system.cpu0.dcache.tags.occ_task_id_percent::1024     0.867188                       # Percentage of cache occupancy per task id
system.cpu0.dcache.tags.tag_accesses         23251031                       # Number of tag accesses
system.cpu0.dcache.tags.data_accesses        23251031                       # Number of data accesses
system.cpu0.dcache.pwrStateResidencyTicks::UNDEFINED  26624318000                       # Cumulative time (in ticks) in various power states
system.cpu0.dcache.ReadReq_hits::cpu0.data      5892114                       # number of ReadReq hits
system.cpu0.dcache.ReadReq_hits::total        5892114                       # number of ReadReq hits
system.cpu0.dcache.WriteReq_hits::cpu0.data      5727446                       # number of WriteReq hits
system.cpu0.dcache.WriteReq_hits::total       5727446                       # number of WriteReq hits
system.cpu0.dcache.LoadLockedReq_hits::cpu0.data         1969                       # number of LoadLockedReq hits
system.cpu0.dcache.LoadLockedReq_hits::total         1969                       # number of LoadLockedReq hits
system.cpu0.dcache.StoreCondReq_hits::cpu0.data         1971                       # number of StoreCondReq hits
system.cpu0.dcache.StoreCondReq_hits::total         1971                       # number of StoreCondReq hits
system.cpu0.dcache.demand_hits::cpu0.data     11619560                       # number of demand (read+write) hits
system.cpu0.dcache.demand_hits::total        11619560                       # number of demand (read+write) hits
system.cpu0.dcache.overall_hits::cpu0.data     11619560                       # number of overall hits
system.cpu0.dcache.overall_hits::total       11619560                       # number of overall hits
system.cpu0.dcache.ReadReq_misses::cpu0.data          633                       # number of ReadReq misses
system.cpu0.dcache.ReadReq_misses::total          633                       # number of ReadReq misses
system.cpu0.dcache.WriteReq_misses::cpu0.data          976                       # number of WriteReq misses
system.cpu0.dcache.WriteReq_misses::total          976                       # number of WriteReq misses
system.cpu0.dcache.LoadLockedReq_misses::cpu0.data           10                       # number of LoadLockedReq misses
system.cpu0.dcache.LoadLockedReq_misses::total           10                       # number of LoadLockedReq misses
system.cpu0.dcache.StoreCondReq_misses::cpu0.data            8                       # number of StoreCondReq misses
system.cpu0.dcache.StoreCondReq_misses::total            8                       # number of StoreCondReq misses
system.cpu0.dcache.demand_misses::cpu0.data         1609                       # number of demand (read+write) misses
system.cpu0.dcache.demand_misses::total          1609                       # number of demand (read+write) misses
system.cpu0.dcache.overall_misses::cpu0.data         1609                       # number of overall misses
system.cpu0.dcache.overall_misses::total         1609                       # number of overall misses
system.cpu0.dcache.ReadReq_miss_latency::cpu0.data     20662000                       # number of ReadReq miss cycles
system.cpu0.dcache.ReadReq_miss_latency::total     20662000                       # number of ReadReq miss cycles
system.cpu0.dcache.WriteReq_miss_latency::cpu0.data     52099998                       # number of WriteReq miss cycles
system.cpu0.dcache.WriteReq_miss_latency::total     52099998                       # number of WriteReq miss cycles
system.cpu0.dcache.LoadLockedReq_miss_latency::cpu0.data       166000                       # number of LoadLockedReq miss cycles
system.cpu0.dcache.LoadLockedReq_miss_latency::total       166000                       # number of LoadLockedReq miss cycles
system.cpu0.dcache.StoreCondReq_miss_latency::cpu0.data        56000                       # number of StoreCondReq miss cycles
system.cpu0.dcache.StoreCondReq_miss_latency::total        56000                       # number of StoreCondReq miss cycles
system.cpu0.dcache.demand_miss_latency::cpu0.data     72761998                       # number of demand (read+write) miss cycles
system.cpu0.dcache.demand_miss_latency::total     72761998                       # number of demand (read+write) miss cycles
system.cpu0.dcache.overall_miss_latency::cpu0.data     72761998                       # number of overall miss cycles
system.cpu0.dcache.overall_miss_latency::total     72761998                       # number of overall miss cycles
system.cpu0.dcache.ReadReq_accesses::cpu0.data      5892747                       # number of ReadReq accesses(hits+misses)
system.cpu0.dcache.ReadReq_accesses::total      5892747                       # number of ReadReq accesses(hits+misses)
system.cpu0.dcache.WriteReq_accesses::cpu0.data      5728422                       # number of WriteReq accesses(hits+misses)
system.cpu0.dcache.WriteReq_accesses::total      5728422                       # number of WriteReq accesses(hits+misses)
system.cpu0.dcache.LoadLockedReq_accesses::cpu0.data         1979                       # number of LoadLockedReq accesses(hits+misses)
system.cpu0.dcache.LoadLockedReq_accesses::total         1979                       # number of LoadLockedReq accesses(hits+misses)
system.cpu0.dcache.StoreCondReq_accesses::cpu0.data         1979                       # number of StoreCondReq accesses(hits+misses)
system.cpu0.dcache.StoreCondReq_accesses::total         1979                       # number of StoreCondReq accesses(hits+misses)
system.cpu0.dcache.demand_accesses::cpu0.data     11621169                       # number of demand (read+write) accesses
system.cpu0.dcache.demand_accesses::total     11621169                       # number of demand (read+write) accesses
system.cpu0.dcache.overall_accesses::cpu0.data     11621169                       # number of overall (read+write) accesses
system.cpu0.dcache.overall_accesses::total     11621169                       # number of overall (read+write) accesses
system.cpu0.dcache.ReadReq_miss_rate::cpu0.data     0.000107                       # miss rate for ReadReq accesses
system.cpu0.dcache.ReadReq_miss_rate::total     0.000107                       # miss rate for ReadReq accesses
system.cpu0.dcache.WriteReq_miss_rate::cpu0.data     0.000170                       # miss rate for WriteReq accesses
system.cpu0.dcache.WriteReq_miss_rate::total     0.000170                       # miss rate for WriteReq accesses
system.cpu0.dcache.LoadLockedReq_miss_rate::cpu0.data     0.005053                       # miss rate for LoadLockedReq accesses
system.cpu0.dcache.LoadLockedReq_miss_rate::total     0.005053                       # miss rate for LoadLockedReq accesses
system.cpu0.dcache.StoreCondReq_miss_rate::cpu0.data     0.004042                       # miss rate for StoreCondReq accesses
system.cpu0.dcache.StoreCondReq_miss_rate::total     0.004042                       # miss rate for StoreCondReq accesses
system.cpu0.dcache.demand_miss_rate::cpu0.data     0.000138                       # miss rate for demand accesses
system.cpu0.dcache.demand_miss_rate::total     0.000138                       # miss rate for demand accesses
system.cpu0.dcache.overall_miss_rate::cpu0.data     0.000138                       # miss rate for overall accesses
system.cpu0.dcache.overall_miss_rate::total     0.000138                       # miss rate for overall accesses
system.cpu0.dcache.ReadReq_avg_miss_latency::cpu0.data 32641.390205                       # average ReadReq miss latency
system.cpu0.dcache.ReadReq_avg_miss_latency::total 32641.390205                       # average ReadReq miss latency
system.cpu0.dcache.WriteReq_avg_miss_latency::cpu0.data 53381.145492                       # average WriteReq miss latency
system.cpu0.dcache.WriteReq_avg_miss_latency::total 53381.145492                       # average WriteReq miss latency
system.cpu0.dcache.LoadLockedReq_avg_miss_latency::cpu0.data        16600                       # average LoadLockedReq miss latency
system.cpu0.dcache.LoadLockedReq_avg_miss_latency::total        16600                       # average LoadLockedReq miss latency
system.cpu0.dcache.StoreCondReq_avg_miss_latency::cpu0.data         7000                       # average StoreCondReq miss latency
system.cpu0.dcache.StoreCondReq_avg_miss_latency::total         7000                       # average StoreCondReq miss latency
system.cpu0.dcache.demand_avg_miss_latency::cpu0.data 45221.875699                       # average overall miss latency
system.cpu0.dcache.demand_avg_miss_latency::total 45221.875699                       # average overall miss latency
system.cpu0.dcache.overall_avg_miss_latency::cpu0.data 45221.875699                       # average overall miss latency
system.cpu0.dcache.overall_avg_miss_latency::total 45221.875699                       # average overall miss latency
system.cpu0.dcache.blocked_cycles::no_mshrs          155                       # number of cycles access was blocked
system.cpu0.dcache.blocked_cycles::no_targets            0                       # number of cycles access was blocked
system.cpu0.dcache.blocked::no_mshrs                6                       # number of cycles access was blocked
system.cpu0.dcache.blocked::no_targets              0                       # number of cycles access was blocked
system.cpu0.dcache.avg_blocked_cycles::no_mshrs    25.833333                       # average number of cycles each access was blocked
system.cpu0.dcache.avg_blocked_cycles::no_targets          nan                       # average number of cycles each access was blocked
system.cpu0.dcache.writebacks::writebacks          114                       # number of writebacks
system.cpu0.dcache.writebacks::total              114                       # number of writebacks
system.cpu0.dcache.ReadReq_mshr_hits::cpu0.data          174                       # number of ReadReq MSHR hits
system.cpu0.dcache.ReadReq_mshr_hits::total          174                       # number of ReadReq MSHR hits
system.cpu0.dcache.WriteReq_mshr_hits::cpu0.data          618                       # number of WriteReq MSHR hits
system.cpu0.dcache.WriteReq_mshr_hits::total          618                       # number of WriteReq MSHR hits
system.cpu0.dcache.LoadLockedReq_mshr_hits::cpu0.data           10                       # number of LoadLockedReq MSHR hits
system.cpu0.dcache.LoadLockedReq_mshr_hits::total           10                       # number of LoadLockedReq MSHR hits
system.cpu0.dcache.demand_mshr_hits::cpu0.data          792                       # number of demand (read+write) MSHR hits
system.cpu0.dcache.demand_mshr_hits::total          792                       # number of demand (read+write) MSHR hits
system.cpu0.dcache.overall_mshr_hits::cpu0.data          792                       # number of overall MSHR hits
system.cpu0.dcache.overall_mshr_hits::total          792                       # number of overall MSHR hits
system.cpu0.dcache.ReadReq_mshr_misses::cpu0.data          459                       # number of ReadReq MSHR misses
system.cpu0.dcache.ReadReq_mshr_misses::total          459                       # number of ReadReq MSHR misses
system.cpu0.dcache.WriteReq_mshr_misses::cpu0.data          358                       # number of WriteReq MSHR misses
system.cpu0.dcache.WriteReq_mshr_misses::total          358                       # number of WriteReq MSHR misses
system.cpu0.dcache.StoreCondReq_mshr_misses::cpu0.data            8                       # number of StoreCondReq MSHR misses
system.cpu0.dcache.StoreCondReq_mshr_misses::total            8                       # number of StoreCondReq MSHR misses
system.cpu0.dcache.demand_mshr_misses::cpu0.data          817                       # number of demand (read+write) MSHR misses
system.cpu0.dcache.demand_mshr_misses::total          817                       # number of demand (read+write) MSHR misses
system.cpu0.dcache.overall_mshr_misses::cpu0.data          817                       # number of overall MSHR misses
system.cpu0.dcache.overall_mshr_misses::total          817                       # number of overall MSHR misses
system.cpu0.dcache.ReadReq_mshr_miss_latency::cpu0.data     13247500                       # number of ReadReq MSHR miss cycles
system.cpu0.dcache.ReadReq_mshr_miss_latency::total     13247500                       # number of ReadReq MSHR miss cycles
system.cpu0.dcache.WriteReq_mshr_miss_latency::cpu0.data     19304499                       # number of WriteReq MSHR miss cycles
system.cpu0.dcache.WriteReq_mshr_miss_latency::total     19304499                       # number of WriteReq MSHR miss cycles
system.cpu0.dcache.StoreCondReq_mshr_miss_latency::cpu0.data        40000                       # number of StoreCondReq MSHR miss cycles
system.cpu0.dcache.StoreCondReq_mshr_miss_latency::total        40000                       # number of StoreCondReq MSHR miss cycles
system.cpu0.dcache.demand_mshr_miss_latency::cpu0.data     32551999                       # number of demand (read+write) MSHR miss cycles
system.cpu0.dcache.demand_mshr_miss_latency::total     32551999                       # number of demand (read+write) MSHR miss cycles
system.cpu0.dcache.overall_mshr_miss_latency::cpu0.data     32551999                       # number of overall MSHR miss cycles
system.cpu0.dcache.overall_mshr_miss_latency::total     32551999                       # number of overall MSHR miss cycles
system.cpu0.dcache.ReadReq_mshr_miss_rate::cpu0.data     0.000078                       # mshr miss rate for ReadReq accesses
system.cpu0.dcache.ReadReq_mshr_miss_rate::total     0.000078                       # mshr miss rate for ReadReq accesses
system.cpu0.dcache.WriteReq_mshr_miss_rate::cpu0.data     0.000062                       # mshr miss rate for WriteReq accesses
system.cpu0.dcache.WriteReq_mshr_miss_rate::total     0.000062                       # mshr miss rate for WriteReq accesses
system.cpu0.dcache.StoreCondReq_mshr_miss_rate::cpu0.data     0.004042                       # mshr miss rate for StoreCondReq accesses
system.cpu0.dcache.StoreCondReq_mshr_miss_rate::total     0.004042                       # mshr miss rate for StoreCondReq accesses
system.cpu0.dcache.demand_mshr_miss_rate::cpu0.data     0.000070                       # mshr miss rate for demand accesses
system.cpu0.dcache.demand_mshr_miss_rate::total     0.000070                       # mshr miss rate for demand accesses
system.cpu0.dcache.overall_mshr_miss_rate::cpu0.data     0.000070                       # mshr miss rate for overall accesses
system.cpu0.dcache.overall_mshr_miss_rate::total     0.000070                       # mshr miss rate for overall accesses
system.cpu0.dcache.ReadReq_avg_mshr_miss_latency::cpu0.data 28861.655773                       # average ReadReq mshr miss latency
system.cpu0.dcache.ReadReq_avg_mshr_miss_latency::total 28861.655773                       # average ReadReq mshr miss latency
system.cpu0.dcache.WriteReq_avg_mshr_miss_latency::cpu0.data 53923.181564                       # average WriteReq mshr miss latency
system.cpu0.dcache.WriteReq_avg_mshr_miss_latency::total 53923.181564                       # average WriteReq mshr miss latency
system.cpu0.dcache.StoreCondReq_avg_mshr_miss_latency::cpu0.data         5000                       # average StoreCondReq mshr miss latency
system.cpu0.dcache.StoreCondReq_avg_mshr_miss_latency::total         5000                       # average StoreCondReq mshr miss latency
system.cpu0.dcache.demand_avg_mshr_miss_latency::cpu0.data 39843.328029                       # average overall mshr miss latency
system.cpu0.dcache.demand_avg_mshr_miss_latency::total 39843.328029                       # average overall mshr miss latency
system.cpu0.dcache.overall_avg_mshr_miss_latency::cpu0.data 39843.328029                       # average overall mshr miss latency
system.cpu0.dcache.overall_avg_mshr_miss_latency::total 39843.328029                       # average overall mshr miss latency
system.cpu0.icache.tags.pwrStateResidencyTicks::UNDEFINED  26624318000                       # Cumulative time (in ticks) in various power states
system.cpu0.icache.tags.replacements            36643                       # number of replacements
system.cpu0.icache.tags.tagsinuse          450.912074                       # Cycle average of tags in use
system.cpu0.icache.tags.total_refs            2330032                       # Total number of references to valid blocks.
system.cpu0.icache.tags.sampled_refs            37129                       # Sample count of references to valid blocks.
system.cpu0.icache.tags.avg_refs            62.755043                       # Average number of references to valid blocks.
system.cpu0.icache.tags.warmup_cycle                0                       # Cycle when the warmup percentage was hit.
system.cpu0.icache.tags.occ_blocks::cpu0.inst   450.912074                       # Average occupied blocks per requestor
system.cpu0.icache.tags.occ_percent::cpu0.inst     0.880688                       # Average percentage of cache occupancy
system.cpu0.icache.tags.occ_percent::total     0.880688                       # Average percentage of cache occupancy
system.cpu0.icache.tags.occ_task_id_blocks::1024          486                       # Occupied blocks per task id
system.cpu0.icache.tags.age_task_id_blocks_1024::0          119                       # Occupied blocks per task id
system.cpu0.icache.tags.age_task_id_blocks_1024::1            1                       # Occupied blocks per task id
system.cpu0.icache.tags.age_task_id_blocks_1024::2            7                       # Occupied blocks per task id
system.cpu0.icache.tags.age_task_id_blocks_1024::3           12                       # Occupied blocks per task id
system.cpu0.icache.tags.age_task_id_blocks_1024::4          347                       # Occupied blocks per task id
system.cpu0.icache.tags.occ_task_id_percent::1024     0.949219                       # Percentage of cache occupancy per task id
system.cpu0.icache.tags.tag_accesses          4771937                       # Number of tag accesses
system.cpu0.icache.tags.data_accesses         4771937                       # Number of data accesses
system.cpu0.icache.pwrStateResidencyTicks::UNDEFINED  26624318000                       # Cumulative time (in ticks) in various power states
system.cpu0.icache.ReadReq_hits::cpu0.inst      2330032                       # number of ReadReq hits
system.cpu0.icache.ReadReq_hits::total        2330032                       # number of ReadReq hits
system.cpu0.icache.demand_hits::cpu0.inst      2330032                       # number of demand (read+write) hits
system.cpu0.icache.demand_hits::total         2330032                       # number of demand (read+write) hits
system.cpu0.icache.overall_hits::cpu0.inst      2330032                       # number of overall hits
system.cpu0.icache.overall_hits::total        2330032                       # number of overall hits
system.cpu0.icache.ReadReq_misses::cpu0.inst        37372                       # number of ReadReq misses
system.cpu0.icache.ReadReq_misses::total        37372                       # number of ReadReq misses
system.cpu0.icache.demand_misses::cpu0.inst        37372                       # number of demand (read+write) misses
system.cpu0.icache.demand_misses::total         37372                       # number of demand (read+write) misses
system.cpu0.icache.overall_misses::cpu0.inst        37372                       # number of overall misses
system.cpu0.icache.overall_misses::total        37372                       # number of overall misses
system.cpu0.icache.ReadReq_miss_latency::cpu0.inst    635669000                       # number of ReadReq miss cycles
system.cpu0.icache.ReadReq_miss_latency::total    635669000                       # number of ReadReq miss cycles
system.cpu0.icache.demand_miss_latency::cpu0.inst    635669000                       # number of demand (read+write) miss cycles
system.cpu0.icache.demand_miss_latency::total    635669000                       # number of demand (read+write) miss cycles
system.cpu0.icache.overall_miss_latency::cpu0.inst    635669000                       # number of overall miss cycles
system.cpu0.icache.overall_miss_latency::total    635669000                       # number of overall miss cycles
system.cpu0.icache.ReadReq_accesses::cpu0.inst      2367404                       # number of ReadReq accesses(hits+misses)
system.cpu0.icache.ReadReq_accesses::total      2367404                       # number of ReadReq accesses(hits+misses)
system.cpu0.icache.demand_accesses::cpu0.inst      2367404                       # number of demand (read+write) accesses
system.cpu0.icache.demand_accesses::total      2367404                       # number of demand (read+write) accesses
system.cpu0.icache.overall_accesses::cpu0.inst      2367404                       # number of overall (read+write) accesses
system.cpu0.icache.overall_accesses::total      2367404                       # number of overall (read+write) accesses
system.cpu0.icache.ReadReq_miss_rate::cpu0.inst     0.015786                       # miss rate for ReadReq accesses
system.cpu0.icache.ReadReq_miss_rate::total     0.015786                       # miss rate for ReadReq accesses
system.cpu0.icache.demand_miss_rate::cpu0.inst     0.015786                       # miss rate for demand accesses
system.cpu0.icache.demand_miss_rate::total     0.015786                       # miss rate for demand accesses
system.cpu0.icache.overall_miss_rate::cpu0.inst     0.015786                       # miss rate for overall accesses
system.cpu0.icache.overall_miss_rate::total     0.015786                       # miss rate for overall accesses
system.cpu0.icache.ReadReq_avg_miss_latency::cpu0.inst 17009.231510                       # average ReadReq miss latency
[...]
system.l2.ReadSharedReq_mshr_miss_latency::total      9704500                       # number of ReadSharedReq MSHR miss cycles
system.l2.demand_mshr_miss_latency::cpu0.inst     38520500                       # number of demand (read+write) MSHR miss cycles
system.l2.demand_mshr_miss_latency::cpu0.data     22875500                       # number of demand (read+write) MSHR miss cycles
system.l2.demand_mshr_miss_latency::cpu1.inst      3989000                       # number of demand (read+write) MSHR miss cycles
system.l2.demand_mshr_miss_latency::cpu1.data      5867000                       # number of demand (read+write) MSHR miss cycles
system.l2.demand_mshr_miss_latency::cpu2.inst      2873000                       # number of demand (read+write) MSHR miss cycles
system.l2.demand_mshr_miss_latency::cpu2.data      5683500                       # number of demand (read+write) MSHR miss cycles
system.l2.demand_mshr_miss_latency::total     79808500                       # number of demand (read+write) MSHR miss cycles
system.l2.overall_mshr_miss_latency::cpu0.inst     38520500                       # number of overall MSHR miss cycles
system.l2.overall_mshr_miss_latency::cpu0.data     22875500                       # number of overall MSHR miss cycles
system.l2.overall_mshr_miss_latency::cpu1.inst      3989000                       # number of overall MSHR miss cycles
system.l2.overall_mshr_miss_latency::cpu1.data      5867000                       # number of overall MSHR miss cycles
system.l2.overall_mshr_miss_latency::cpu2.inst      2873000                       # number of overall MSHR miss cycles
system.l2.overall_mshr_miss_latency::cpu2.data      5683500                       # number of overall MSHR miss cycles
system.l2.overall_mshr_miss_latency::total     79808500                       # number of overall MSHR miss cycles
system.l2.ReadExReq_mshr_miss_rate::cpu0.data     0.927215                       # mshr miss rate for ReadExReq accesses
system.l2.ReadExReq_mshr_miss_rate::cpu1.data     0.781513                       # mshr miss rate for ReadExReq accesses
system.l2.ReadExReq_mshr_miss_rate::cpu2.data     0.989583                       # mshr miss rate for ReadExReq accesses
system.l2.ReadExReq_mshr_miss_rate::total     0.905838                       # mshr miss rate for ReadExReq accesses
system.l2.ReadCleanReq_mshr_miss_rate::cpu0.inst     0.020226                       # mshr miss rate for ReadCleanReq accesses
system.l2.ReadCleanReq_mshr_miss_rate::cpu1.inst     0.002403                       # mshr miss rate for ReadCleanReq accesses
system.l2.ReadCleanReq_mshr_miss_rate::cpu2.inst     0.003652                       # mshr miss rate for ReadCleanReq accesses
system.l2.ReadCleanReq_mshr_miss_rate::total     0.010421                       # mshr miss rate for ReadCleanReq accesses
system.l2.ReadSharedReq_mshr_miss_rate::cpu0.data     0.480892                       # mshr miss rate for ReadSharedReq accesses
system.l2.ReadSharedReq_mshr_miss_rate::cpu1.data     0.128834                       # mshr miss rate for ReadSharedReq accesses
system.l2.ReadSharedReq_mshr_miss_rate::cpu2.data     0.115385                       # mshr miss rate for ReadSharedReq accesses
system.l2.ReadSharedReq_mshr_miss_rate::total     0.308072                       # mshr miss rate for ReadSharedReq accesses
system.l2.demand_mshr_miss_rate::cpu0.inst     0.020226                       # mshr miss rate for demand accesses
system.l2.demand_mshr_miss_rate::cpu0.data     0.704762                       # mshr miss rate for demand accesses
system.l2.demand_mshr_miss_rate::cpu1.inst     0.002403                       # mshr miss rate for demand accesses
system.l2.demand_mshr_miss_rate::cpu1.data     0.404255                       # mshr miss rate for demand accesses
system.l2.demand_mshr_miss_rate::cpu2.inst     0.003652                       # mshr miss rate for demand accesses
system.l2.demand_mshr_miss_rate::cpu2.data     0.486726                       # mshr miss rate for demand accesses
system.l2.demand_mshr_miss_rate::total       0.018045                       # mshr miss rate for demand accesses
system.l2.overall_mshr_miss_rate::cpu0.inst     0.020226                       # mshr miss rate for overall accesses
system.l2.overall_mshr_miss_rate::cpu0.data     0.704762                       # mshr miss rate for overall accesses
system.l2.overall_mshr_miss_rate::cpu1.inst     0.002403                       # mshr miss rate for overall accesses
system.l2.overall_mshr_miss_rate::cpu1.data     0.404255                       # mshr miss rate for overall accesses
system.l2.overall_mshr_miss_rate::cpu2.inst     0.003652                       # mshr miss rate for overall accesses
system.l2.overall_mshr_miss_rate::cpu2.data     0.486726                       # mshr miss rate for overall accesses
system.l2.overall_mshr_miss_rate::total      0.018045                       # mshr miss rate for overall accesses
system.l2.ReadExReq_avg_mshr_miss_latency::cpu0.data 51269.624573                       # average ReadExReq mshr miss latency
system.l2.ReadExReq_avg_mshr_miss_latency::cpu1.data 51462.365591                       # average ReadExReq mshr miss latency
system.l2.ReadExReq_avg_mshr_miss_latency::cpu2.data 51721.052632                       # average ReadExReq mshr miss latency
system.l2.ReadExReq_avg_mshr_miss_latency::total 51396.049896                       # average ReadExReq mshr miss latency
system.l2.ReadCleanReq_avg_mshr_miss_latency::cpu0.inst 51292.276964                       # average ReadCleanReq mshr miss latency
system.l2.ReadCleanReq_avg_mshr_miss_latency::cpu1.inst 51141.025641                       # average ReadCleanReq mshr miss latency
system.l2.ReadCleanReq_avg_mshr_miss_latency::cpu2.inst 51303.571429                       # average ReadCleanReq mshr miss latency
system.l2.ReadCleanReq_avg_mshr_miss_latency::total 51279.661017                       # average ReadCleanReq mshr miss latency
system.l2.ReadSharedReq_avg_mshr_miss_latency::cpu0.data 52009.933775                       # average ReadSharedReq mshr miss latency
system.l2.ReadSharedReq_avg_mshr_miss_latency::cpu1.data 51476.190476                       # average ReadSharedReq mshr miss latency
system.l2.ReadSharedReq_avg_mshr_miss_latency::cpu2.data 51333.333333                       # average ReadSharedReq mshr miss latency
system.l2.ReadSharedReq_avg_mshr_miss_latency::total 51895.721925                       # average ReadSharedReq mshr miss latency
system.l2.demand_avg_mshr_miss_latency::cpu0.inst 51292.276964                       # average overall mshr miss latency
system.l2.demand_avg_mshr_miss_latency::cpu0.data 51521.396396                       # average overall mshr miss latency
system.l2.demand_avg_mshr_miss_latency::cpu1.inst 51141.025641                       # average overall mshr miss latency
system.l2.demand_avg_mshr_miss_latency::cpu1.data 51464.912281                       # average overall mshr miss latency
system.l2.demand_avg_mshr_miss_latency::cpu2.inst 51303.571429                       # average overall mshr miss latency
system.l2.demand_avg_mshr_miss_latency::cpu2.data 51668.181818                       # average overall mshr miss latency
system.l2.demand_avg_mshr_miss_latency::total 51389.890534                       # average overall mshr miss latency
system.l2.overall_avg_mshr_miss_latency::cpu0.inst 51292.276964                       # average overall mshr miss latency
system.l2.overall_avg_mshr_miss_latency::cpu0.data 51521.396396                       # average overall mshr miss latency
system.l2.overall_avg_mshr_miss_latency::cpu1.inst 51141.025641                       # average overall mshr miss latency
system.l2.overall_avg_mshr_miss_latency::cpu1.data 51464.912281                       # average overall mshr miss latency
system.l2.overall_avg_mshr_miss_latency::cpu2.inst 51303.571429                       # average overall mshr miss latency
system.l2.overall_avg_mshr_miss_latency::cpu2.data 51668.181818                       # average overall mshr miss latency
system.l2.overall_avg_mshr_miss_latency::total 51389.890534                       # average overall mshr miss latency
system.membus.snoop_filter.tot_requests          1831                       # Total number of requests made to the snoop filter.
system.membus.snoop_filter.hit_single_requests           88                       # Number of requests hitting in the snoop filter with a single holder of the requested data.
system.membus.snoop_filter.hit_multi_requests            0                       # Number of requests hitting in the snoop filter with multiple (>1) holders of the requested data.
system.membus.snoop_filter.tot_snoops               0                       # Total number of snoops made to the snoop filter.
system.membus.snoop_filter.hit_single_snoops            0                       # Number of snoops hitting in the snoop filter with a single holder of the requested data.
system.membus.snoop_filter.hit_multi_snoops            0                       # Number of snoops hitting in the snoop filter with multiple (>1) holders of the requested data.
system.membus.pwrStateResidencyTicks::UNDEFINED  26624318000                       # Cumulative time (in ticks) in various power states
system.membus.trans_dist::ReadResp               1071                       # Transaction distribution
system.membus.trans_dist::UpgradeReq               65                       # Transaction distribution
system.membus.trans_dist::SCUpgradeReq             23                       # Transaction distribution
system.membus.trans_dist::ReadExReq               481                       # Transaction distribution
system.membus.trans_dist::ReadExResp              481                       # Transaction distribution
system.membus.trans_dist::ReadSharedReq          1071                       # Transaction distribution
system.membus.pkt_count_system.l2.mem_side::system.physmem.port         3192                       # Packet count per connected master and slave (bytes)
system.membus.pkt_count::total                   3192                       # Packet count per connected master and slave (bytes)
system.membus.pkt_size_system.l2.mem_side::system.physmem.port        99328                       # Cumulative packet size per connected master and slave (bytes)
system.membus.pkt_size::total                   99328                       # Cumulative packet size per connected master and slave (bytes)
system.membus.snoops                               88                       # Total snoops (count)
system.membus.snoopTraffic                          0                       # Total snoop traffic (bytes)
system.membus.snoop_fanout::samples              1831                       # Request fanout histogram
system.membus.snoop_fanout::mean                    0                       # Request fanout histogram
system.membus.snoop_fanout::stdev                   0                       # Request fanout histogram
system.membus.snoop_fanout::underflows              0      0.00%      0.00% # Request fanout histogram
system.membus.snoop_fanout::0                    1831    100.00%    100.00% # Request fanout histogram
system.membus.snoop_fanout::1                       0      0.00%    100.00% # Request fanout histogram
system.membus.snoop_fanout::overflows               0      0.00%    100.00% # Request fanout histogram
system.membus.snoop_fanout::min_value               0                       # Request fanout histogram
system.membus.snoop_fanout::max_value               0                       # Request fanout histogram
system.membus.snoop_fanout::total                1831                       # Request fanout histogram
system.membus.reqLayer0.occupancy             2591396                       # Layer occupancy (ticks)
system.membus.reqLayer0.utilization               0.0                       # Layer utilization (%)
system.membus.respLayer1.occupancy            7760000                       # Layer occupancy (ticks)
system.membus.respLayer1.utilization              0.0                       # Layer utilization (%)
system.tol2bus.snoop_filter.tot_requests       170854                       # Total number of requests made to the snoop filter.
system.tol2bus.snoop_filter.hit_single_requests        48945                       # Number of requests hitting in the snoop filter with a single holder of the requested data.
system.tol2bus.snoop_filter.hit_multi_requests        86572                       # Number of requests hitting in the snoop filter with multiple (>1) holders of the requested data.
system.tol2bus.snoop_filter.tot_snoops              0                       # Total number of snoops made to the snoop filter.
system.tol2bus.snoop_filter.hit_single_snoops            0                       # Number of snoops hitting in the snoop filter with a single holder of the requested data.
system.tol2bus.snoop_filter.hit_multi_snoops            0                       # Number of snoops hitting in the snoop filter with multiple (>1) holders of the requested data.
system.tol2bus.pwrStateResidencyTicks::UNDEFINED  26624318000                       # Cumulative time (in ticks) in various power states
system.tol2bus.trans_dist::ReadResp             85790                       # Transaction distribution
system.tol2bus.trans_dist::WritebackDirty          147                       # Transaction distribution
system.tol2bus.trans_dist::WritebackClean        83935                       # Transaction distribution
system.tol2bus.trans_dist::CleanEvict             336                       # Transaction distribution
system.tol2bus.trans_dist::UpgradeReq              85                       # Transaction distribution
system.tol2bus.trans_dist::SCUpgradeReq            23                       # Transaction distribution
system.tol2bus.trans_dist::UpgradeResp            108                       # Transaction distribution
system.tol2bus.trans_dist::ReadExReq              537                       # Transaction distribution
system.tol2bus.trans_dist::ReadExResp             537                       # Transaction distribution
system.tol2bus.trans_dist::ReadCleanReq         84923                       # Transaction distribution
system.tol2bus.trans_dist::ReadSharedReq          868                       # Transaction distribution
system.tol2bus.pkt_count_system.cpu0.icache.mem_side::system.l2.cpu_side       110902                       # Packet count per connected master and slave (bytes)
system.tol2bus.pkt_count_system.cpu0.dcache.mem_side::system.l2.cpu_side         1769                       # Packet count per connected master and slave (bytes)
system.tol2bus.pkt_count_system.cpu1.icache.mem_side::system.l2.cpu_side        97121                       # Packet count per connected master and slave (bytes)
system.tol2bus.pkt_count_system.cpu1.dcache.mem_side::system.l2.cpu_side          767                       # Packet count per connected master and slave (bytes)
system.tol2bus.pkt_count_system.cpu2.icache.mem_side::system.l2.cpu_side        45757                       # Packet count per connected master and slave (bytes)
system.tol2bus.pkt_count_system.cpu2.dcache.mem_side::system.l2.cpu_side          618                       # Packet count per connected master and slave (bytes)
system.tol2bus.pkt_count::total                256934                       # Packet count per connected master and slave (bytes)
system.tol2bus.pkt_size_system.cpu0.icache.mem_side::system.l2.cpu_side      4721408                       # Cumulative packet size per connected master and slave (bytes)
system.tol2bus.pkt_size_system.cpu0.dcache.mem_side::system.l2.cpu_side        47616                       # Cumulative packet size per connected master and slave (bytes)
system.tol2bus.pkt_size_system.cpu1.icache.mem_side::system.l2.cpu_side      4138432                       # Cumulative packet size per connected master and slave (bytes)
system.tol2bus.pkt_size_system.cpu1.dcache.mem_side::system.l2.cpu_side        19840                       # Cumulative packet size per connected master and slave (bytes)
system.tol2bus.pkt_size_system.cpu2.icache.mem_side::system.l2.cpu_side      1947008                       # Cumulative packet size per connected master and slave (bytes)
system.tol2bus.pkt_size_system.cpu2.dcache.mem_side::system.l2.cpu_side        14784                       # Cumulative packet size per connected master and slave (bytes)
system.tol2bus.pkt_size::total               10889088                       # Cumulative packet size per connected master and slave (bytes)
system.tol2bus.snoops                             355                       # Total snoops (count)
system.tol2bus.snoopTraffic                     17088                       # Total snoop traffic (bytes)
system.tol2bus.snoop_fanout::samples            86436                       # Request fanout histogram
system.tol2bus.snoop_fanout::mean            1.136135                       # Request fanout histogram
system.tol2bus.snoop_fanout::stdev           1.170140                       # Request fanout histogram
system.tol2bus.snoop_fanout::underflows             0      0.00%      0.00% # Request fanout histogram
system.tol2bus.snoop_fanout::0                  35338     40.88%     40.88% # Request fanout histogram
system.tol2bus.snoop_fanout::1                  14847     17.18%     58.06% # Request fanout histogram
system.tol2bus.snoop_fanout::2                  31563     36.52%     94.58% # Request fanout histogram
system.tol2bus.snoop_fanout::3                    256      0.30%     94.87% # Request fanout histogram
system.tol2bus.snoop_fanout::4                   2698      3.12%     97.99% # Request fanout histogram
system.tol2bus.snoop_fanout::5                   1734      2.01%    100.00% # Request fanout histogram
system.tol2bus.snoop_fanout::6                      0      0.00%    100.00% # Request fanout histogram
system.tol2bus.snoop_fanout::overflows              0      0.00%    100.00% # Request fanout histogram
system.tol2bus.snoop_fanout::min_value              0                       # Request fanout histogram
system.tol2bus.snoop_fanout::max_value              5                       # Request fanout histogram
system.tol2bus.snoop_fanout::total              86436                       # Request fanout histogram
system.tol2bus.reqLayer0.occupancy          169509000                       # Layer occupancy (ticks)
system.tol2bus.reqLayer0.utilization              0.6                       # Layer utilization (%)
system.tol2bus.respLayer0.occupancy          55714456                       # Layer occupancy (ticks)
system.tol2bus.respLayer0.utilization             0.2                       # Layer utilization (%)
system.tol2bus.respLayer1.occupancy           1195987                       # Layer occupancy (ticks)
system.tol2bus.respLayer1.utilization             0.0                       # Layer utilization (%)
system.tol2bus.respLayer4.occupancy          48723427                       # Layer occupancy (ticks)
system.tol2bus.respLayer4.utilization             0.2                       # Layer utilization (%)
system.tol2bus.respLayer5.occupancy            528484                       # Layer occupancy (ticks)
system.tol2bus.respLayer5.utilization             0.0                       # Layer utilization (%)
system.tol2bus.respLayer8.occupancy          23023955                       # Layer occupancy (ticks)
system.tol2bus.respLayer8.utilization             0.1                       # Layer utilization (%)
system.tol2bus.respLayer9.occupancy            455486                       # Layer occupancy (ticks)
system.tol2bus.respLayer9.utilization             0.0                       # Layer utilization (%)

---------- End Simulation Statistics   ----------
