
---------- Begin Simulation Statistics ----------
sim_seconds                                  0.027888                       # Number of seconds simulated
sim_ticks                                 27887850000                       # Number of ticks simulated
final_tick                                27887850000                       # Number of ticks from beginning of simulation (restored from checkpoints and never reset)
sim_freq                                 1000000000000                       # Frequency of simulated ticks
host_inst_rate                                 245417                       # Simulator instruction rate (inst/s)
host_op_rate                                   270987                       # Simulator op (including micro ops) rate (op/s)
host_tick_rate                              105941293                       # Simulator tick rate (ticks/s)
host_mem_usage                                 676592                       # Number of bytes of host memory used
host_seconds                                   263.24                       # Real time elapsed on the host
sim_insts                                    64603160                       # Number of instructions simulated
sim_ops                                      71334244                       # Number of ops (including micro ops) simulated
system.voltage_domain.voltage                       1                       # Voltage in Volts
system.clk_domain.clock                          1000                       # Clock period in ticks
system.physmem.pwrStateResidencyTicks::UNDEFINED  27887850000                       # Cumulative time (in ticks) in various power states
system.physmem.bytes_read::cpu0.inst            45568                       # Number of bytes read from this memory
system.physmem.bytes_read::cpu0.data            22272                       # Number of bytes read from this memory
system.physmem.bytes_read::cpu1.inst             3264                       # Number of bytes read from this memory
system.physmem.bytes_read::cpu1.data             7744                       # Number of bytes read from this memory
system.physmem.bytes_read::cpu2.inst             5376                       # Number of bytes read from this memory
system.physmem.bytes_read::cpu2.data             8768                       # Number of bytes read from this memory
system.physmem.bytes_read::total                92992                       # Number of bytes read from this memory
system.physmem.bytes_inst_read::cpu0.inst        45568                       # Number of instructions bytes read from this memory
system.physmem.bytes_inst_read::cpu1.inst         3264                       # Number of instructions bytes read from this memory
system.physmem.bytes_inst_read::cpu2.inst         5376                       # Number of instructions bytes read from this memory
system.physmem.bytes_inst_read::total           54208                       # Number of instructions bytes read from this memory
system.physmem.num_reads::cpu0.inst               712                       # Number of read requests responded to by this memory
system.physmem.num_reads::cpu0.data               348                       # Number of read requests responded to by this memory
system.physmem.num_reads::cpu1.inst                51                       # Number of read requests responded to by this memory
system.physmem.num_reads::cpu1.data               121                       # Number of read requests responded to by this memory
system.physmem.num_reads::cpu2.inst                84                       # Number of read requests responded to by this memory
system.physmem.num_reads::cpu2.data               137                       # Number of read requests responded to by this memory
system.physmem.num_reads::total                  1453                       # Number of read requests responded to by this memory
system.physmem.bw_read::cpu0.inst             1633973                       # Total read bandwidth from this memory (bytes/s)
system.physmem.bw_read::cpu0.data              798627                       # Total read bandwidth from this memory (bytes/s)
system.physmem.bw_read::cpu1.inst              117040                       # Total read bandwidth from this memory (bytes/s)
system.physmem.bw_read::cpu1.data              277684                       # Total read bandwidth from this memory (bytes/s)
system.physmem.bw_read::cpu2.inst              192772                       # Total read bandwidth from this memory (bytes/s)
system.physmem.bw_read::cpu2.data              314402                       # Total read bandwidth from this memory (bytes/s)
system.physmem.bw_read::total                 3334499                       # Total read bandwidth from this memory (bytes/s)
system.physmem.bw_inst_read::cpu0.inst        1633973                       # Instruction read bandwidth from this memory (bytes/s)
system.physmem.bw_inst_read::cpu1.inst         117040                       # Instruction read bandwidth from this memory (bytes/s)
system.physmem.bw_inst_read::cpu2.inst         192772                       # Instruction read bandwidth from this memory (bytes/s)
system.physmem.bw_inst_read::total            1943786                       # Instruction read bandwidth from this memory (bytes/s)
system.physmem.bw_total::cpu0.inst            1633973                       # Total bandwidth to/from this memory (bytes/s)
system.physmem.bw_total::cpu0.data             798627                       # Total bandwidth to/from this memory (bytes/s)
system.physmem.bw_total::cpu1.inst             117040                       # Total bandwidth to/from this memory (bytes/s)
system.physmem.bw_total::cpu1.data             277684                       # Total bandwidth to/from this memory (bytes/s)
system.physmem.bw_total::cpu2.inst             192772                       # Total bandwidth to/from this memory (bytes/s)
system.physmem.bw_total::cpu2.data             314402                       # Total bandwidth to/from this memory (bytes/s)
system.physmem.bw_total::total                3334499                       # Total bandwidth to/from this memory (bytes/s)
system.pwrStateResidencyTicks::UNDEFINED  27887850000                       # Cumulative time (in ticks) in various power states
system.cpu0.branchPred.lookups                5682265                       # Number of BP lookups
system.cpu0.branchPred.condPredicted          5308526                       # Number of conditional branches predicted
system.cpu0.branchPred.condIncorrect            25867                       # Number of conditional branches incorrect
system.cpu0.branchPred.BTBLookups             5208838                       # Number of BTB lookups
system.cpu0.branchPred.BTBHits                5046810                       # Number of BTB hits
system.cpu0.branchPred.BTBCorrect                   0                       # Number of correct BTB predictions (this stat may not work properly.
system.cpu0.branchPred.BTBHitPct            96.889364                       # BTB Hit Percentage
system.cpu0.branchPred.usedRAS                 137621                       # Number of times the RAS was used to get a target.
system.cpu0.branchPred.RASInCorrect              6568                       # Number of incorrect RAS predictions.
system.cpu0.branchPred.indirectLookups          51420                       # Number of indirect predictor lookups.
system.cpu0.branchPred.indirectHits             46826                       # Number of indirect target hits.
system.cpu0.branchPred.indirectMisses            4594                       # Number of indirect misses.
system.cpu0.branchPredindirectMispredicted         3001                       # Number of mispredicted indirect branches.
system.cpu0.dstage2_mmu.stage2_tlb.walker.pwrStateResidencyTicks::UNDEFINED  27887850000                       # Cumulative time (in ticks) in various power states
system.cpu0.dstage2_mmu.stage2_tlb.walker.walks            0                       # Table walker walks requested
system.cpu0.dstage2_mmu.stage2_tlb.walker.walkRequestOrigin_Requested::Data            0                       # Table walker requests started/completed, data/inst
system.cpu0.dstage2_mmu.stage2_tlb.walker.walkRequestOrigin_Requested::Inst            0                       # Table walker requests started/completed, data/inst
system.cpu0.dstage2_mmu.stage2_tlb.walker.walkRequestOrigin_Requested::total            0                       # Table walker requests started/completed, data/inst
system.cpu0.dstage2_mmu.stage2_tlb.walker.walkRequestOrigin_Completed::Data            0                       # Table walker requests started/completed, data/inst
system.cpu0.dstage2_mmu.stage2_tlb.walker.walkRequestOrigin_Completed::Inst            0                       # Table walker requests started/completed, data/inst
system.cpu0.dstage2_mmu.stage2_tlb.walker.walkRequestOrigin_Completed::total            0                       # Table walker requests started/completed, data/inst
system.cpu0.dstage2_mmu.stage2_tlb.walker.walkRequestOrigin::total            0                       # Table walker requests started/completed, data/inst
system.cpu0.dstage2_mmu.stage2_tlb.inst_hits            0                       # ITB inst hits
system.cpu0.dstage2_mmu.stage2_tlb.inst_misses            0                       # ITB inst misses
system.cpu0.dstage2_mmu.stage2_tlb.read_hits            0                       # DTB read hits
system.cpu0.dstage2_mmu.stage2_tlb.read_misses            0                       # DTB read misses
system.cpu0.dstage2_mmu.stage2_tlb.write_hits            0                       # DTB write hits
system.cpu0.dstage2_mmu.stage2_tlb.write_misses            0                       # DTB write misses
system.cpu0.dstage2_mmu.stage2_tlb.flush_tlb            0                       # Number of times complete TLB was flushed
system.cpu0.dstage2_mmu.stage2_tlb.flush_tlb_mva            0                       # Number of times TLB was flushed by MVA
system.cpu0.dstage2_mmu.stage2_tlb.flush_tlb_mva_asid            0                       # Number of times TLB was flushed by MVA & ASID
system.cpu0.dstage2_mmu.stage2_tlb.flush_tlb_asid            0                       # Number of times TLB was flushed by ASID
system.cpu0.dstage2_mmu.stage2_tlb.flush_entries            0                       # Number of entries that have been flushed from TLB
system.cpu0.dstage2_mmu.stage2_tlb.align_faults            0                       # Number of TLB faults due to alignment restrictions
system.cpu0.dstage2_mmu.stage2_tlb.prefetch_faults            0                       # Number of TLB faults due to prefetch
system.cpu0.dstage2_mmu.stage2_tlb.domain_faults            0                       # Number of TLB faults due to domain restrictions
system.cpu0.dstage2_mmu.stage2_tlb.perms_faults            0                       # Number of TLB faults due to permissions restrictions
system.cpu0.dstage2_mmu.stage2_tlb.read_accesses            0                       # DTB read accesses
system.cpu0.dstage2_mmu.stage2_tlb.write_accesses            0                       # DTB write accesses
system.cpu0.dstage2_mmu.stage2_tlb.inst_accesses            0                       # ITB inst accesses
system.cpu0.dstage2_mmu.stage2_tlb.hits             0                       # DTB hits
system.cpu0.dstage2_mmu.stage2_tlb.misses            0                       # DTB misses
system.cpu0.dstage2_mmu.stage2_tlb.accesses            0                       # DTB accesses
system.cpu0.dtb.walker.pwrStateResidencyTicks::UNDEFINED  27887850000                       # Cumulative time (in ticks) in various power states
system.cpu0.dtb.walker.walks                        0                       # Table walker walks requested
system.cpu0.dtb.walker.walkRequestOrigin_Requested::Data            0                       # Table walker requests started/completed, data/inst
system.cpu0.dtb.walker.walkRequestOrigin_Requested::Inst            0                       # Table walker requests started/completed, data/inst
system.cpu0.dtb.walker.walkRequestOrigin_Requested::total            0                       # Table walker requests started/completed, data/inst
system.cpu0.dtb.walker.walkRequestOrigin_Completed::Data            0                       # Table walker requests started/completed, data/inst
system.cpu0.dtb.walker.walkRequestOrigin_Completed::Inst            0                       # Table walker requests started/completed, data/inst
system.cpu0.dtb.walker.walkRequestOrigin_Completed::total            0                       # Table walker requests started/completed, data/inst
system.cpu0.dtb.walker.walkRequestOrigin::total            0                       # Table walker requests started/completed, data/inst
system.cpu0.dtb.inst_hits                           0                       # ITB inst hits
system.cpu0.dtb.inst_misses                         0                       # ITB inst misses
system.cpu0.dtb.read_hits                           0                       # DTB read hits
system.cpu0.dtb.read_misses                         0                       # DTB read misses
system.cpu0.dtb.write_hits                          0                       # DTB write hits
system.cpu0.dtb.write_misses                        0                       # DTB write misses
system.cpu0.dtb.flush_tlb                           0                       # Number of times complete TLB was flushed
system.cpu0.dtb.flush_tlb_mva                       0                       # Number of times TLB was flushed by MVA
system.cpu0.dtb.flush_tlb_mva_asid                  0                       # Number of times TLB was flushed by MVA & ASID
system.cpu0.dtb.flush_tlb_asid                      0                       # Number of times TLB was flushed by ASID
system.cpu0.dtb.flush_entries                       0                       # Number of entries that have been flushed from TLB
system.cpu0.dtb.align_faults                        0                       # Number of TLB faults due to alignment restrictions
system.cpu0.dtb.prefetch_faults                     0                       # Number of TLB faults due to prefetch
system.cpu0.dtb.domain_faults                       0                       # Number of TLB faults due to domain restrictions
system.cpu0.dtb.perms_faults                        0                       # Number of TLB faults due to permissions restrictions
system.cpu0.dtb.read_accesses                       0                       # DTB read accesses
system.cpu0.dtb.write_accesses                      0                       # DTB write accesses
system.cpu0.dtb.inst_accesses                       0                       # ITB inst accesses
system.cpu0.dtb.hits                                0                       # DTB hits
system.cpu0.dtb.misses                              0                       # DTB misses
system.cpu0.dtb.accesses                            0                       # DTB accesses
system.cpu0.istage2_mmu.stage2_tlb.walker.pwrStateResidencyTicks::UNDEFINED  27887850000                       # Cumulative time (in ticks) in various power states
system.cpu0.istage2_mmu.stage2_tlb.walker.walks            0                       # Table walker walks requested
system.cpu0.istage2_mmu.stage2_tlb.walker.walkRequestOrigin_Requested::Data            0                       # Table walker requests started/completed, data/inst
system.cpu0.istage2_mmu.stage2_tlb.walker.walkRequestOrigin_Requested::Inst            0                       # Table walker requests started/completed, data/inst
system.cpu0.istage2_mmu.stage2_tlb.walker.walkRequestOrigin_Requested::total            0                       # Table walker requests started/completed, data/inst
system.cpu0.istage2_mmu.stage2_tlb.walker.walkRequestOrigin_Completed::Data            0                       # Table walker requests started/completed, data/inst
system.cpu0.istage2_mmu.stage2_tlb.walker.walkRequestOrigin_Completed::Inst            0                       # Table walker requests started/completed, data/inst
system.cpu0.istage2_mmu.stage2_tlb.walker.walkRequestOrigin_Completed::total            0                       # Table walker requests started/completed, data/inst
system.cpu0.istage2_mmu.stage2_tlb.walker.walkRequestOrigin::total            0                       # Table walker requests started/completed, data/inst
system.cpu0.istage2_mmu.stage2_tlb.inst_hits            0                       # ITB inst hits
system.cpu0.istage2_mmu.stage2_tlb.inst_misses            0                       # ITB inst misses
system.cpu0.istage2_mmu.stage2_tlb.read_hits            0                       # DTB read hits
system.cpu0.istage2_mmu.stage2_tlb.read_misses            0                       # DTB read misses
system.cpu0.istage2_mmu.stage2_tlb.write_hits            0                       # DTB write hits
system.cpu0.istage2_mmu.stage2_tlb.write_misses            0                       # DTB write misses
system.cpu0.istage2_mmu.stage2_tlb.flush_tlb            0                       # Number of times complete TLB was flushed
system.cpu0.istage2_mmu.stage2_tlb.flush_tlb_mva            0                       # Number of times TLB was flushed by MVA
system.cpu0.istage2_mmu.stage2_tlb.flush_tlb_mva_asid            0                       # Number of times TLB was flushed by MVA & ASID
system.cpu0.istage2_mmu.stage2_tlb.flush_tlb_asid            0                       # Number of times TLB was flushed by ASID
system.cpu0.istage2_mmu.stage2_tlb.flush_entries            0                       # Number of entries that have been flushed from TLB
system.cpu0.istage2_mmu.stage2_tlb.align_faults            0                       # Number of TLB faults due to alignment restrictions
system.cpu0.istage2_mmu.stage2_tlb.prefetch_faults            0                       # Number of TLB faults due to prefetch
system.cpu0.istage2_mmu.stage2_tlb.domain_faults            0                       # Number of TLB faults due to domain restrictions
system.cpu0.istage2_mmu.stage2_tlb.perms_faults            0                       # Number of TLB faults due to permissions restrictions
system.cpu0.istage2_mmu.stage2_tlb.read_accesses            0                       # DTB read accesses
system.cpu0.istage2_mmu.stage2_tlb.write_accesses            0                       # DTB write accesses
system.cpu0.istage2_mmu.stage2_tlb.inst_accesses            0                       # ITB inst accesses
system.cpu0.istage2_mmu.stage2_tlb.hits             0                       # DTB hits
system.cpu0.istage2_mmu.stage2_tlb.misses            0                       # DTB misses
system.cpu0.istage2_mmu.stage2_tlb.accesses            0                       # DTB accesses
system.cpu0.itb.walker.pwrStateResidencyTicks::UNDEFINED  27887850000                       # Cumulative time (in ticks) in various power states
system.cpu0.itb.walker.walks                        0                       # Table walker walks requested
system.cpu0.itb.walker.walkRequestOrigin_Requested::Data            0                       # Table walker requests started/completed, data/inst
system.cpu0.itb.walker.walkRequestOrigin_Requested::Inst            0                       # Table walker requests started/completed, data/inst
system.cpu0.itb.walker.walkRequestOrigin_Requested::total            0                       # Table walker requests started/completed, data/inst
system.cpu0.itb.walker.walkRequestOrigin_Completed::Data            0                       # Table walker requests started/completed, data/inst
system.cpu0.itb.walker.walkRequestOrigin_Completed::Inst            0                       # Table walker requests started/completed, data/inst
system.cpu0.itb.walker.walkRequestOrigin_Completed::total            0                       # Table walker requests started/completed, data/inst
system.cpu0.itb.walker.walkRequestOrigin::total            0                       # Table walker requests started/completed, data/inst
system.cpu0.itb.inst_hits                           0                       # ITB inst hits
system.cpu0.itb.inst_misses                         0                       # ITB inst misses
system.cpu0.itb.read_hits                           0                       # DTB read hits
system.cpu0.itb.read_misses                         0                       # DTB read misses
system.cpu0.itb.write_hits                          0                       # DTB write hits
system.cpu0.itb.write_misses                        0                       # DTB write misses
system.cpu0.itb.flush_tlb                           0                       # Number of times complete TLB was flushed
system.cpu0.itb.flush_tlb_mva                       0                       # Number of times TLB was flushed by MVA
system.cpu0.itb.flush_tlb_mva_asid                  0                       # Number of times TLB was flushed by MVA & ASID
system.cpu0.itb.flush_tlb_asid                      0                       # Number of times TLB was flushed by ASID
system.cpu0.itb.flush_entries                       0                       # Number of entries that have been flushed from TLB
system.cpu0.itb.align_faults                        0                       # Number of TLB faults due to alignment restrictions
system.cpu0.itb.prefetch_faults                     0                       # Number of TLB faults due to prefetch
system.cpu0.itb.domain_faults                       0                       # Number of TLB faults due to domain restrictions
system.cpu0.itb.perms_faults                        0                       # Number of TLB faults due to permissions restrictions
system.cpu0.itb.read_accesses                       0                       # DTB read accesses
system.cpu0.itb.write_accesses                      0                       # DTB write accesses
system.cpu0.itb.inst_accesses                       0                       # ITB inst accesses
system.cpu0.itb.hits                                0                       # DTB hits
system.cpu0.itb.misses                              0                       # DTB misses
system.cpu0.itb.accesses                            0                       # DTB accesses
system.cpu0.workload.num_syscalls                  22                       # Number of system calls
system.cpu0.pwrStateResidencyTicks::ON    27887850000                       # Cumulative time (in ticks) in various power states
system.cpu0.numCycles                        27887851                       # number of cpu cycles simulated
system.cpu0.numWorkItemsStarted                     0                       # number of work items this cpu started
system.cpu0.numWorkItemsCompleted                   0                       # number of work items this cpu completed
system.cpu0.fetch.icacheStallCycles          10543138                       # Number of cycles fetch is stalled on an Icache miss
system.cpu0.fetch.Insts                      28571353                       # Number of instructions fetch has processed
system.cpu0.fetch.Branches                    5682265                       # Number of branches that fetch encountered
system.cpu0.fetch.predictedBranches           5231257                       # Number of branches that fetch has predicted taken
system.cpu0.fetch.Cycles                     17297905                       # Number of cycles fetch has run and was not squashing or blocked
system.cpu0.fetch.SquashCycles                  52181                       # Number of cycles fetch has spent squashing
system.cpu0.fetch.PendingTrapStallCycles          160                       # Number of stall cycles due to pending traps
system.cpu0.fetch.CacheLines                 10052973                       # Number of cache lines fetched
system.cpu0.fetch.IcacheSquashes                 5818                       # Number of outstanding Icache misses that were squashed
system.cpu0.fetch.rateDist::samples          27867293                       # Number of instructions fetched each cycle (Total)
system.cpu0.fetch.rateDist::mean             1.058151                       # Number of instructions fetched each cycle (Total)
system.cpu0.fetch.rateDist::stdev            0.901940                       # Number of instructions fetched each cycle (Total)
system.cpu0.fetch.rateDist::underflows              0      0.00%      0.00% # Number of instructions fetched each cycle (Total)
system.cpu0.fetch.rateDist::0                10571820     37.94%     37.94% # Number of instructions fetched each cycle (Total)
system.cpu0.fetch.rateDist::1                 5103131     18.31%     56.25% # Number of instructions fetched each cycle (Total)
system.cpu0.fetch.rateDist::2                12192342     43.75%    100.00% # Number of instructions fetched each cycle (Total)
system.cpu0.fetch.rateDist::overflows               0      0.00%    100.00% # Number of instructions fetched each cycle (Total)
system.cpu0.fetch.rateDist::min_value               0                       # Number of instructions fetched each cycle (Total)
system.cpu0.fetch.rateDist::max_value               2                       # Number of instructions fetched each cycle (Total)
system.cpu0.fetch.rateDist::total            27867293                       # Number of instructions fetched each cycle (Total)
system.cpu0.fetch.branchRate                 0.203754                       # Number of branch fetches per cycle
system.cpu0.fetch.rate                       1.024509                       # Number of inst fetches per cycle
system.cpu0.decode.IdleCycles                10473505                       # Number of cycles decode is idle
system.cpu0.decode.BlockedCycles               146938                       # Number of cycles decode is blocked
system.cpu0.decode.RunCycles                 17177741                       # Number of cycles decode is running
system.cpu0.decode.UnblockCycles                44138                       # Number of cycles decode is unblocking
system.cpu0.decode.SquashCycles                 24971                       # Number of cycles decode is squashing
system.cpu0.decode.BranchResolved              206924                       # Number of times decode resolved a branch
system.cpu0.decode.BranchMispred                 1136                       # Number of times decode detected a branch misprediction
system.cpu0.decode.DecodedInsts              29390163                       # Number of instructions handled by decode
system.cpu0.decode.SquashedInsts                 1404                       # Number of squashed instructions handled by decode
system.cpu0.rename.SquashCycles                 24971                       # Number of cycles rename is squashing
system.cpu0.rename.IdleCycles                10503121                       # Number of cycles rename is idle
system.cpu0.rename.BlockCycles                  43830                       # Number of cycles rename is blocking
system.cpu0.rename.serializeStallCycles         75950                       # count of cycles rename stalled for serializing inst
system.cpu0.rename.RunCycles                 17192222                       # Number of cycles rename is running
system.cpu0.rename.UnblockCycles                27199                       # Number of cycles rename is unblocking
system.cpu0.rename.RenamedInsts              29352360                       # Number of instructions processed by rename
system.cpu0.rename.IQFullEvents                 14877                       # Number of times rename has blocked due to IQ full
system.cpu0.rename.SQFullEvents                   221                       # Number of times rename has blocked due to SQ full
system.cpu0.rename.RenamedOperands           29656804                       # Number of destination operands rename has renamed
system.cpu0.rename.RenameLookups            134770190                       # Number of register rename lookups that rename has made
system.cpu0.rename.int_rename_lookups        30684443                       # Number of integer rename lookups
system.cpu0.rename.fp_rename_lookups               16                       # Number of floating rename lookups
system.cpu0.rename.CommittedMaps             29033877                       # Number of HB maps that are committed
system.cpu0.rename.UndoneMaps                  622927                       # Number of HB maps that are undone due to squashing
system.cpu0.rename.serializingInsts              4962                       # count of serializing insts renamed
system.cpu0.rename.tempSerializingInsts          1957                       # count of temporary serializing insts renamed
system.cpu0.rename.skidInsts                    34195                       # count of insts added to the skid buffer
system.cpu0.memDep0.insertedLoads            10302358                       # Number of loads inserted to the mem dependence unit.
system.cpu0.memDep0.insertedStores            5479742                       # Number of stores inserted to the mem dependence unit.
system.cpu0.memDep0.conflictingLoads          4626445                       # Number of conflicting loads.
system.cpu0.memDep0.conflictingStores           18518                       # Number of conflicting stores.
system.cpu0.iq.iqInstsAdded                  29279026                       # Number of instructions added to the IQ (excludes non-spec)
system.cpu0.iq.iqNonSpecInstsAdded               3862                       # Number of non-speculative instructions added to the IQ
system.cpu0.iq.iqInstsIssued                 28994073                       # Number of instructions issued
system.cpu0.iq.iqSquashedInstsIssued            55311                       # Number of squashed instructions issued
system.cpu0.iq.iqSquashedInstsExamined         449730                       # Number of squashed instructions iterated over during squash; mainly for profiling
system.cpu0.iq.iqSquashedOperandsExamined      1555635                       # Number of squashed operands that are examined and possibly removed from graph
system.cpu0.iq.iqSquashedNonSpecRemoved            13                       # Number of squashed non-spec instructions that were removed
system.cpu0.iq.issued_per_cycle::samples     27867293                       # Number of insts issued each cycle
system.cpu0.iq.issued_per_cycle::mean        1.040434                       # Number of insts issued each cycle
system.cpu0.iq.issued_per_cycle::stdev       0.294884                       # Number of insts issued each cycle
system.cpu0.iq.issued_per_cycle::underflows            0      0.00%      0.00% # Number of insts issued each cycle
system.cpu0.iq.issued_per_cycle::0             671008      2.41%      2.41% # Number of insts issued each cycle
system.cpu0.iq.issued_per_cycle::1           25398497     91.14%     93.55% # Number of insts issued each cycle
system.cpu0.iq.issued_per_cycle::2            1797788      6.45%    100.00% # Number of insts issued each cycle
system.cpu0.iq.issued_per_cycle::overflows            0      0.00%    100.00% # Number of insts issued each cycle
system.cpu0.iq.issued_per_cycle::min_value            0                       # Number of insts issued each cycle
system.cpu0.iq.issued_per_cycle::max_value            2                       # Number of insts issued each cycle
system.cpu0.iq.issued_per_cycle::total       27867293                       # Number of insts issued each cycle
system.cpu0.iq.fu_full::No_OpClass                  0      0.00%      0.00% # attempts to use FU when none available
system.cpu0.iq.fu_full::IntAlu                2661321     82.67%     82.67% # attempts to use FU when none available
system.cpu0.iq.fu_full::IntMult                     1      0.00%     82.67% # attempts to use FU when none available
system.cpu0.iq.fu_full::IntDiv                      0      0.00%     82.67% # attempts to use FU when none available
system.cpu0.iq.fu_full::FloatAdd                    0      0.00%     82.67% # attempts to use FU when none available
system.cpu0.iq.fu_full::FloatCmp                    0      0.00%     82.67% # attempts to use FU when none available
system.cpu0.iq.fu_full::FloatCvt                    0      0.00%     82.67% # attempts to use FU when none available
system.cpu0.iq.fu_full::FloatMult                   0      0.00%     82.67% # attempts to use FU when none available
system.cpu0.iq.fu_full::FloatMultAcc                0      0.00%     82.67% # attempts to use FU when none available
system.cpu0.iq.fu_full::FloatDiv                    0      0.00%     82.67% # attempts to use FU when none available
system.cpu0.iq.fu_full::FloatMisc                   0      0.00%     82.67% # attempts to use FU when none available
system.cpu0.iq.fu_full::FloatSqrt                   0      0.00%     82.67% # attempts to use FU when none available
system.cpu0.iq.fu_full::SimdAdd                     0      0.00%     82.67% # attempts to use FU when none available
system.cpu0.iq.fu_full::SimdAddAcc                  0      0.00%     82.67% # attempts to use FU when none available
system.cpu0.iq.fu_full::SimdAlu                     0      0.00%     82.67% # attempts to use FU when none available
system.cpu0.iq.fu_full::SimdCmp                     0      0.00%     82.67% # attempts to use FU when none available
system.cpu0.iq.fu_full::SimdCvt                     0      0.00%     82.67% # attempts to use FU when none available
system.cpu0.iq.fu_full::SimdMisc                    0      0.00%     82.67% # attempts to use FU when none available
system.cpu0.iq.fu_full::SimdMult                    0      0.00%     82.67% # attempts to use FU when none available
system.cpu0.iq.fu_full::SimdMultAcc                 0      0.00%     82.67% # attempts to use FU when none available
system.cpu0.iq.fu_full::SimdShift                   0      0.00%     82.67% # attempts to use FU when none available
system.cpu0.iq.fu_full::SimdShiftAcc                0      0.00%     82.67% # attempts to use FU when none available
system.cpu0.iq.fu_full::SimdSqrt                    0      0.00%     82.67% # attempts to use FU when none available
system.cpu0.iq.fu_full::SimdFloatAdd                0      0.00%     82.67% # attempts to use FU when none available
system.cpu0.iq.fu_full::SimdFloatAlu                0      0.00%     82.67% # attempts to use FU when none available
system.cpu0.iq.fu_full::SimdFloatCmp                0      0.00%     82.67% # attempts to use FU when none available
system.cpu0.iq.fu_full::SimdFloatCvt                0      0.00%     82.67% # attempts to use FU when none available
system.cpu0.iq.fu_full::SimdFloatDiv                0      0.00%     82.67% # attempts to use FU when none available
system.cpu0.iq.fu_full::SimdFloatMisc               0      0.00%     82.67% # attempts to use FU when none available
system.cpu0.iq.fu_full::SimdFloatMult               0      0.00%     82.67% # attempts to use FU when none available
system.cpu0.iq.fu_full::SimdFloatMultAcc            0      0.00%     82.67% # attempts to use FU when none available
system.cpu0.iq.fu_full::SimdFloatSqrt               0      0.00%     82.67% # attempts to use FU when none available
system.cpu0.iq.fu_full::MemRead                290583      9.03%     91.69% # attempts to use FU when none available
system.cpu0.iq.fu_full::MemWrite               267430      8.31%    100.00% # attempts to use FU when none available
system.cpu0.iq.fu_full::FloatMemRead                0      0.00%    100.00% # attempts to use FU when none available
system.cpu0.iq.fu_full::FloatMemWrite               0      0.00%    100.00% # attempts to use FU when none available
system.cpu0.iq.fu_full::IprAccess                   0      0.00%    100.00% # attempts to use FU when none available
system.cpu0.iq.fu_full::InstPrefetch                0      0.00%    100.00% # attempts to use FU when none available
system.cpu0.iq.FU_type_0::No_OpClass                0      0.00%      0.00% # Type of FU issued
system.cpu0.iq.FU_type_0::IntAlu             13169963     45.42%     45.42% # Type of FU issued
system.cpu0.iq.FU_type_0::IntMult               37074      0.13%     45.55% # Type of FU issued
system.cpu0.iq.FU_type_0::IntDiv                    0      0.00%     45.55% # Type of FU issued
system.cpu0.iq.FU_type_0::FloatAdd                  0      0.00%     45.55% # Type of FU issued
system.cpu0.iq.FU_type_0::FloatCmp                  0      0.00%     45.55% # Type of FU issued
system.cpu0.iq.FU_type_0::FloatCvt                  0      0.00%     45.55% # Type of FU issued
system.cpu0.iq.FU_type_0::FloatMult                 0      0.00%     45.55% # Type of FU issued
system.cpu0.iq.FU_type_0::FloatMultAcc              0      0.00%     45.55% # Type of FU issued
system.cpu0.iq.FU_type_0::FloatDiv                  0      0.00%     45.55% # Type of FU issued
system.cpu0.iq.FU_type_0::FloatMisc                 0      0.00%     45.55% # Type of FU issued
system.cpu0.iq.FU_type_0::FloatSqrt                 0      0.00%     45.55% # Type of FU issued
system.cpu0.iq.FU_type_0::SimdAdd                   0      0.00%     45.55% # Type of FU issued
system.cpu0.iq.FU_type_0::SimdAddAcc                0      0.00%     45.55% # Type of FU issued
system.cpu0.iq.FU_type_0::SimdAlu                   0      0.00%     45.55% # Type of FU issued
system.cpu0.iq.FU_type_0::SimdCmp                   0      0.00%     45.55% # Type of FU issued
system.cpu0.iq.FU_type_0::SimdCvt                   0      0.00%     45.55% # Type of FU issued
system.cpu0.iq.FU_type_0::SimdMisc                  0      0.00%     45.55% # Type of FU issued
system.cpu0.iq.FU_type_0::SimdMult                  0      0.00%     45.55% # Type of FU issued
system.cpu0.iq.FU_type_0::SimdMultAcc               0      0.00%     45.55% # Type of FU issued
system.cpu0.iq.FU_type_0::SimdShift                 0      0.00%     45.55% # Type of FU issued
system.cpu0.iq.FU_type_0::SimdShiftAcc              0      0.00%     45.55% # Type of FU issued
system.cpu0.iq.FU_type_0::SimdSqrt                  0      0.00%     45.55% # Type of FU issued
system.cpu0.iq.FU_type_0::SimdFloatAdd              0      0.00%     45.55% # Type of FU issued
system.cpu0.iq.FU_type_0::SimdFloatAlu              0      0.00%     45.55% # Type of FU issued
system.cpu0.iq.FU_type_0::SimdFloatCmp              0      0.00%     45.55% # Type of FU issued
system.cpu0.iq.FU_type_0::SimdFloatCvt              0      0.00%     45.55% # Type of FU issued
system.cpu0.iq.FU_type_0::SimdFloatDiv              0      0.00%     45.55% # Type of FU issued
system.cpu0.iq.FU_type_0::SimdFloatMisc          2700      0.01%     45.56% # Type of FU issued
system.cpu0.iq.FU_type_0::SimdFloatMult             0      0.00%     45.56% # Type of FU issued
system.cpu0.iq.FU_type_0::SimdFloatMultAcc            0      0.00%     45.56% # Type of FU issued
system.cpu0.iq.FU_type_0::SimdFloatSqrt             0      0.00%     45.56% # Type of FU issued
system.cpu0.iq.FU_type_0::MemRead            10319294     35.59%     81.15% # Type of FU issued
system.cpu0.iq.FU_type_0::MemWrite            5465026     18.85%    100.00% # Type of FU issued
system.cpu0.iq.FU_type_0::FloatMemRead              0      0.00%    100.00% # Type of FU issued
system.cpu0.iq.FU_type_0::FloatMemWrite            16      0.00%    100.00% # Type of FU issued
system.cpu0.iq.FU_type_0::IprAccess                 0      0.00%    100.00% # Type of FU issued
system.cpu0.iq.FU_type_0::InstPrefetch              0      0.00%    100.00% # Type of FU issued
system.cpu0.iq.FU_type_0::total              28994073                       # Type of FU issued
system.cpu0.iq.rate                          1.039667                       # Inst issue rate
system.cpu0.iq.fu_busy_cnt                    3219335                       # FU busy when requested
system.cpu0.iq.fu_busy_rate                  0.111034                       # FU busy rate (busy events/executed inst)
system.cpu0.iq.int_inst_queue_reads          89130053                       # Number of integer instruction queue reads
system.cpu0.iq.int_inst_queue_writes         29732824                       # Number of integer instruction queue writes
system.cpu0.iq.int_inst_queue_wakeup_accesses     28937466                       # Number of integer instruction queue wakeup accesses
system.cpu0.iq.fp_inst_queue_reads                 32                       # Number of floating instruction queue reads
system.cpu0.iq.fp_inst_queue_writes                16                       # Number of floating instruction queue writes
system.cpu0.iq.fp_inst_queue_wakeup_accesses           16                       # Number of floating instruction queue wakeup accesses
system.cpu0.iq.int_alu_accesses              32213392                       # Number of integer alu accesses
system.cpu0.iq.fp_alu_accesses                     16                       # Number of floating point alu accesses
system.cpu0.iew.lsq.thread0.forwLoads         4613911                       # Number of loads that had data forwarded from stores
system.cpu0.iew.lsq.thread0.invAddrLoads            0                       # Number of loads ignored due to an invalid address
system.cpu0.iew.lsq.thread0.squashedLoads        42731                       # Number of loads squashed
system.cpu0.iew.lsq.thread0.ignoredResponses           67                       # Number of memory responses ignored because the instruction is squashed
system.cpu0.iew.lsq.thread0.memOrderViolation          222                       # Number of memory ordering violations
system.cpu0.iew.lsq.thread0.squashedStores        41744                       # Number of stores squashed
system.cpu0.iew.lsq.thread0.invAddrSwpfs            0                       # Number of software prefetches ignored due to an invalid address
system.cpu0.iew.lsq.thread0.blockedLoads            0                       # Number of blocked loads due to partial load-store forwarding
system.cpu0.iew.lsq.thread0.rescheduledLoads        32057                       # Number of loads that were rescheduled
system.cpu0.iew.lsq.thread0.cacheBlocked            1                       # Number of times an access to memory failed due to the cache being blocked
system.cpu0.iew.iewIdleCycles                       0                       # Number of cycles IEW is idle
system.cpu0.iew.iewSquashCycles                 24971                       # Number of cycles IEW is squashing
system.cpu0.iew.iewBlockCycles                  40839                       # Number of cycles IEW is blocking
system.cpu0.iew.iewUnblockCycles                 1927                       # Number of cycles IEW is unblocking
system.cpu0.iew.iewDispatchedInsts           29282921                       # Number of instructions dispatched to IQ
system.cpu0.iew.iewDispSquashedInsts             7039                       # Number of squashed instructions skipped by dispatch
system.cpu0.iew.iewDispLoadInsts             10302358                       # Number of dispatched load instructions
system.cpu0.iew.iewDispStoreInsts             5479742                       # Number of dispatched store instructions
system.cpu0.iew.iewDispNonSpecInsts              1946                       # Number of dispatched non-speculative instructions
system.cpu0.iew.iewIQFullEvents                     1                       # Number of times the IQ has become full, causing a stall
system.cpu0.iew.iewLSQFullEvents                    0                       # Number of times the LSQ has become full, causing a stall
system.cpu0.iew.memOrderViolationEvents           222                       # Number of memory order violations
system.cpu0.iew.predictedTakenIncorrect         13023                       # Number of branches that were predicted taken incorrectly
system.cpu0.iew.predictedNotTakenIncorrect        11810                       # Number of branches that were predicted not taken incorrectly
system.cpu0.iew.branchMispredicts               24833                       # Number of branch mispredicts detected at execute
system.cpu0.iew.iewExecutedInsts             28976545                       # Number of executed instructions
system.cpu0.iew.iewExecLoadInsts             10314749                       # Number of load instructions executed
system.cpu0.iew.iewExecSquashedInsts            17528                       # Number of squashed instructions skipped in execute
system.cpu0.iew.exec_swp                            0                       # number of swp insts executed
system.cpu0.iew.exec_nop                           33                       # number of nop insts executed
system.cpu0.iew.exec_refs                    15775434                       # number of memory reference insts executed
system.cpu0.iew.exec_branches                 5593248                       # Number of branches executed
system.cpu0.iew.exec_stores                   5460685                       # Number of stores executed
system.cpu0.iew.exec_rate                    1.039038                       # Inst execution rate
system.cpu0.iew.wb_sent                      28938307                       # cumulative count of insts sent to commit
system.cpu0.iew.wb_count                     28937482                       # cumulative count of insts written-back
system.cpu0.iew.wb_producers                 17238333                       # num instructions producing a value
system.cpu0.iew.wb_consumers                 20240379                       # num instructions consuming a value
system.cpu0.iew.wb_rate                      1.037638                       # insts written-back per cycle
system.cpu0.iew.wb_fanout                    0.851680                       # average fanout of values written-back
system.cpu0.commit.commitSquashedInsts         449745                       # The number of squashed insts skipped by commit
system.cpu0.commit.commitNonSpecStalls           3849                       # The number of times commit has been forced to stall to communicate backwards
system.cpu0.commit.branchMispredicts            24748                       # The number of times a branch was mispredicted
system.cpu0.commit.committed_per_cycle::samples     27801519                       # Number of insts commited each cycle
system.cpu0.commit.committed_per_cycle::mean     1.037107                       # Number of insts commited each cycle
system.cpu0.commit.committed_per_cycle::stdev     0.754485                       # Number of insts commited each cycle
system.cpu0.commit.committed_per_cycle::underflows            0      0.00%      0.00% # Number of insts commited each cycle
system.cpu0.commit.committed_per_cycle::0      5614566     20.20%     20.20% # Number of insts commited each cycle
system.cpu0.commit.committed_per_cycle::1     16437579     59.12%     79.32% # Number of insts commited each cycle
system.cpu0.commit.committed_per_cycle::2      5304585     19.08%     98.40% # Number of insts commited each cycle
system.cpu0.commit.committed_per_cycle::3       231075      0.83%     99.23% # Number of insts commited each cycle
system.cpu0.commit.committed_per_cycle::4       102596      0.37%     99.60% # Number of insts commited each cycle
system.cpu0.commit.committed_per_cycle::5        47659      0.17%     99.77% # Number of insts commited each cycle
system.cpu0.commit.committed_per_cycle::6        23278      0.08%     99.86% # Number of insts commited each cycle
system.cpu0.commit.committed_per_cycle::7        16611      0.06%     99.92% # Number of insts commited each cycle
system.cpu0.commit.committed_per_cycle::8        23570      0.08%    100.00% # Number of insts commited each cycle
system.cpu0.commit.committed_per_cycle::overflows            0      0.00%    100.00% # Number of insts commited each cycle
system.cpu0.commit.committed_per_cycle::min_value            0                       # Number of insts commited each cycle
system.cpu0.commit.committed_per_cycle::max_value            8                       # Number of insts commited each cycle
system.cpu0.commit.committed_per_cycle::total     27801519                       # Number of insts commited each cycle
system.cpu0.commit.committedInsts            27978880                       # Number of instructions committed
system.cpu0.commit.committedOps              28833158                       # Number of ops (including micro ops) committed
system.cpu0.commit.swp_count                        0                       # Number of s/w prefetches committed
system.cpu0.commit.refs                      15697625                       # Number of memory references committed
system.cpu0.commit.loads                     10259627                       # Number of loads committed
system.cpu0.commit.membars                       1916                       # Number of memory barriers committed
system.cpu0.commit.branches                   5583382                       # Number of branches committed
system.cpu0.commit.fp_insts                        16                       # Number of committed floating point instructions.
system.cpu0.commit.int_insts                 23584195                       # Number of committed integer instructions.
system.cpu0.commit.function_calls              131771                       # Number of function calls committed.
system.cpu0.commit.op_class_0::No_OpClass            0      0.00%      0.00% # Class of committed instruction
system.cpu0.commit.op_class_0::IntAlu        13095858     45.42%     45.42% # Class of committed instruction
system.cpu0.commit.op_class_0::IntMult          36975      0.13%     45.55% # Class of committed instruction
system.cpu0.commit.op_class_0::IntDiv               0      0.00%     45.55% # Class of committed instruction
system.cpu0.commit.op_class_0::FloatAdd             0      0.00%     45.55% # Class of committed instruction
system.cpu0.commit.op_class_0::FloatCmp             0      0.00%     45.55% # Class of committed instruction
system.cpu0.commit.op_class_0::FloatCvt             0      0.00%     45.55% # Class of committed instruction
system.cpu0.commit.op_class_0::FloatMult            0      0.00%     45.55% # Class of committed instruction
system.cpu0.commit.op_class_0::FloatMultAcc            0      0.00%     45.55% # Class of committed instruction
system.cpu0.commit.op_class_0::FloatDiv             0      0.00%     45.55% # Class of committed instruction
system.cpu0.commit.op_class_0::FloatMisc            0      0.00%     45.55% # Class of committed instruction
system.cpu0.commit.op_class_0::FloatSqrt            0      0.00%     45.55% # Class of committed instruction
system.cpu0.commit.op_class_0::SimdAdd              0      0.00%     45.55% # Class of committed instruction
system.cpu0.commit.op_class_0::SimdAddAcc            0      0.00%     45.55% # Class of committed instruction
system.cpu0.commit.op_class_0::SimdAlu              0      0.00%     45.55% # Class of committed instruction
system.cpu0.commit.op_class_0::SimdCmp              0      0.00%     45.55% # Class of committed instruction
system.cpu0.commit.op_class_0::SimdCvt              0      0.00%     45.55% # Class of committed instruction
system.cpu0.commit.op_class_0::SimdMisc             0      0.00%     45.55% # Class of committed instruction
system.cpu0.commit.op_class_0::SimdMult             0      0.00%     45.55% # Class of committed instruction
system.cpu0.commit.op_class_0::SimdMultAcc            0      0.00%     45.55% # Class of committed instruction
system.cpu0.commit.op_class_0::SimdShift            0      0.00%     45.55% # Class of committed instruction
system.cpu0.commit.op_class_0::SimdShiftAcc            0      0.00%     45.55% # Class of committed instruction
system.cpu0.commit.op_class_0::SimdSqrt             0      0.00%     45.55% # Class of committed instruction
system.cpu0.commit.op_class_0::SimdFloatAdd            0      0.00%     45.55% # Class of committed instruction
system.cpu0.commit.op_class_0::SimdFloatAlu            0      0.00%     45.55% # Class of committed instruction
system.cpu0.commit.op_class_0::SimdFloatCmp            0      0.00%     45.55% # Class of committed instruction
system.cpu0.commit.op_class_0::SimdFloatCvt            0      0.00%     45.55% # Class of committed instruction
system.cpu0.commit.op_class_0::SimdFloatDiv            0      0.00%     45.55% # Class of committed instruction
system.cpu0.commit.op_class_0::SimdFloatMisc         2700      0.01%     45.56% # Class of committed instruction
system.cpu0.commit.op_class_0::SimdFloatMult            0      0.00%     45.56% # Class of committed instruction
system.cpu0.commit.op_class_0::SimdFloatMultAcc            0      0.00%     45.56% # Class of committed instruction
system.cpu0.commit.op_class_0::SimdFloatSqrt            0      0.00%     45.56% # Class of committed instruction
system.cpu0.commit.op_class_0::MemRead       10259627     35.58%     81.14% # Class of committed instruction
system.cpu0.commit.op_class_0::MemWrite       5437982     18.86%    100.00% # Class of committed instruction
system.cpu0.commit.op_class_0::FloatMemRead            0      0.00%    100.00% # Class of committed instruction
system.cpu0.commit.op_class_0::FloatMemWrite           16      0.00%    100.00% # Class of committed instruction
system.cpu0.commit.op_class_0::IprAccess            0      0.00%    100.00% # Class of committed instruction
system.cpu0.commit.op_class_0::InstPrefetch            0      0.00%    100.00% # Class of committed instruction
system.cpu0.commit.op_class_0::total         28833158                       # Class of committed instruction
system.cpu0.commit.bw_lim_events                23570                       # number cycles where commit BW limit reached
system.cpu0.rob.rob_reads                    57060605                       # The number of ROB reads
system.cpu0.rob.rob_writes                   58631585                       # The number of ROB writes
system.cpu0.timesIdled                            595                       # Number of times that the entire CPU went into an idle state and unscheduled itself
system.cpu0.idleCycles                          20558                       # Total number of cycles that the CPU has spent unscheduled due to idling
system.cpu0.committedInsts                   27978880                       # Number of Instructions Simulated
system.cpu0.committedOps                     28833158                       # Number of Ops (including micro ops) Simulated
system.cpu0.cpi                              0.996747                       # CPI: Cycles Per Instruction
system.cpu0.cpi_total                        0.996747                       # CPI: Total CPI of All Threads
system.cpu0.ipc                              1.003264                       # IPC: Instructions Per Cycle
system.cpu0.ipc_total                        1.003264                       # IPC: Total IPC of All Threads
system.cpu0.int_regfile_reads                29838009                       # number of integer regfile reads
system.cpu0.int_regfile_writes               12927949                       # number of integer regfile writes
system.cpu0.fp_regfile_reads                      336                       # number of floating regfile reads
system.cpu0.cc_regfile_reads                117682447                       # number of cc regfile reads
system.cpu0.cc_regfile_writes                16097678                       # number of cc regfile writes
system.cpu0.misc_regfile_reads               15804744                       # number of misc regfile reads
system.cpu0.misc_regfile_writes                  3831                       # number of misc regfile writes
system.cpu0.dcache.tags.pwrStateResidencyTicks::UNDEFINED  27887850000                       # Cumulative time (in ticks) in various power states
system.cpu0.dcache.tags.replacements              379                       # number of replacements
system.cpu0.dcache.tags.tagsinuse          186.734913                       # Cycle average of tags in use
system.cpu0.dcache.tags.total_refs           11034054                       # Total number of references to valid blocks.
system.cpu0.dcache.tags.sampled_refs              792                       # Sample count of references to valid blocks.
system.cpu0.dcache.tags.avg_refs         13931.886364                       # Average number of references to valid blocks.
system.cpu0.dcache.tags.warmup_cycle                0                       # Cycle when the warmup percentage was hit.
system.cpu0.dcache.tags.occ_blocks::cpu0.data   186.734913                       # Average occupied blocks per requestor
system.cpu0.dcache.tags.occ_percent::cpu0.data     0.364717                       # Average percentage of cache occupancy
system.cpu0.dcache.tags.occ_percent::total     0.364717                       # Average percentage of cache occupancy
system.cpu0.dcache.tags.occ_task_id_blocks::1024          413                       # Occupied blocks per task id
system.cpu0.dcache.tags.age_task_id_blocks_1024::0           41                       # Occupied blocks per task id
system.cpu0.dcache.tags.age_task_id_blocks_1024::1            3                       # Occupied blocks per task id
system.cpu0.dcache.tags.age_task_id_blocks_1024::2           31                       # Occupied blocks per task id
system.cpu0.dcache.tags.age_task_id_blocks_1024::3          262                       # Occupied blocks per task id
system.cpu0.dcache.tags.age_task_id_blocks_1024::4           76                       # Occupied blocks per task id
system.cpu0.dcache.tags.occ_task_id_percent::1024     0.806641                       # Percentage of cache occupancy per task id
system.cpu0.dcache.tags.tag_accesses         22072035                       # Number of tag accesses
system.cpu0.dcache.tags.data_accesses        22072035                       # Number of data accesses
system.cpu0.dcache.pwrStateResidencyTicks::UNDEFINED  27887850000                       # Cumulative time (in ticks) in various power states
system.cpu0.dcache.ReadReq_hits::cpu0.data      5626691                       # number of ReadReq hits
system.cpu0.dcache.ReadReq_hits::total        5626691                       # number of ReadReq hits
system.cpu0.dcache.WriteReq_hits::cpu0.data      5403530                       # number of WriteReq hits
system.cpu0.dcache.WriteReq_hits::total       5403530                       # number of WriteReq hits
system.cpu0.dcache.LoadLockedReq_hits::cpu0.data         1912                       # number of LoadLockedReq hits
system.cpu0.dcache.LoadLockedReq_hits::total         1912                       # number of LoadLockedReq hits
system.cpu0.dcache.StoreCondReq_hits::cpu0.data         1915                       # number of StoreCondReq hits
system.cpu0.dcache.StoreCondReq_hits::total         1915                       # number of StoreCondReq hits
system.cpu0.dcache.demand_hits::cpu0.data     11030221                       # number of demand (read+write) hits
system.cpu0.dcache.demand_hits::total        11030221                       # number of demand (read+write) hits
system.cpu0.dcache.overall_hits::cpu0.data     11030221                       # number of overall hits
system.cpu0.dcache.overall_hits::total       11030221                       # number of overall hits
system.cpu0.dcache.ReadReq_misses::cpu0.data          856                       # number of ReadReq misses
system.cpu0.dcache.ReadReq_misses::total          856                       # number of ReadReq misses
system.cpu0.dcache.WriteReq_misses::cpu0.data          711                       # number of WriteReq misses
system.cpu0.dcache.WriteReq_misses::total          711                       # number of WriteReq misses
system.cpu0.dcache.LoadLockedReq_misses::cpu0.data            3                       # number of LoadLockedReq misses
system.cpu0.dcache.LoadLockedReq_misses::total            3                       # number of LoadLockedReq misses
system.cpu0.dcache.demand_misses::cpu0.data         1567                       # number of demand (read+write) misses
system.cpu0.dcache.demand_misses::total          1567                       # number of demand (read+write) misses
system.cpu0.dcache.overall_misses::cpu0.data         1567                       # number of overall misses
system.cpu0.dcache.overall_misses::total         1567                       # number of overall misses
system.cpu0.dcache.ReadReq_miss_latency::cpu0.data     22506000                       # number of ReadReq miss cycles
system.cpu0.dcache.ReadReq_miss_latency::total     22506000                       # number of ReadReq miss cycles
system.cpu0.dcache.WriteReq_miss_latency::cpu0.data     40142000                       # number of WriteReq miss cycles
system.cpu0.dcache.WriteReq_miss_latency::total     40142000                       # number of WriteReq miss cycles
system.cpu0.dcache.LoadLockedReq_miss_latency::cpu0.data       119000                       # number of LoadLockedReq miss cycles
system.cpu0.dcache.LoadLockedReq_miss_latency::total       119000                       # number of LoadLockedReq miss cycles
system.cpu0.dcache.demand_miss_latency::cpu0.data     62648000                       # number of demand (read+write) miss cycles
system.cpu0.dcache.demand_miss_latency::total     62648000                       # number of demand (read+write) miss cycles
system.cpu0.dcache.overall_miss_latency::cpu0.data     62648000                       # number of overall miss cycles
system.cpu0.dcache.overall_miss_latency::total     62648000                       # number of overall miss cycles
system.cpu0.dcache.ReadReq_accesses::cpu0.data      5627547                       # number of ReadReq accesses(hits+misses)
system.cpu0.dcache.ReadReq_accesses::total      5627547                       # number of ReadReq accesses(hits+misses)
system.cpu0.dcache.WriteReq_accesses::cpu0.data      5404241                       # number of WriteReq accesses(hits+misses)
system.cpu0.dcache.WriteReq_accesses::total      5404241                       # number of WriteReq accesses(hits+misses)
system.cpu0.dcache.LoadLockedReq_accesses::cpu0.data         1915                       # number of LoadLockedReq accesses(hits+misses)
system.cpu0.dcache.LoadLockedReq_accesses::total         1915                       # number of LoadLockedReq accesses(hits+misses)
system.cpu0.dcache.StoreCondReq_accesses::cpu0.data         1915                       # number of StoreCondReq accesses(hits+misses)
system.cpu0.dcache.StoreCondReq_accesses::total         1915                       # number of StoreCondReq accesses(hits+misses)
system.cpu0.dcache.demand_accesses::cpu0.data     11031788                       # number of demand (read+write) accesses
system.cpu0.dcache.demand_accesses::total     11031788                       # number of demand (read+write) accesses
system.cpu0.dcache.overall_accesses::cpu0.data     11031788                       # number of overall (read+write) accesses
system.cpu0.dcache.overall_accesses::total     11031788                       # number of overall (read+write) accesses
system.cpu0.dcache.ReadReq_miss_rate::cpu0.data     0.000152                       # miss rate for ReadReq accesses
system.cpu0.dcache.ReadReq_miss_rate::total     0.000152                       # miss rate for ReadReq accesses
system.cpu0.dcache.WriteReq_miss_rate::cpu0.data     0.000132                       # miss rate for WriteReq accesses
system.cpu0.dcache.WriteReq_miss_rate::total     0.000132                       # miss rate for WriteReq accesses
system.cpu0.dcache.LoadLockedReq_miss_rate::cpu0.data     0.001567                       # miss rate for LoadLockedReq accesses
system.cpu0.dcache.LoadLockedReq_miss_rate::total     0.001567                       # miss rate for LoadLockedReq accesses
system.cpu0.dcache.demand_miss_rate::cpu0.data     0.000142                       # miss rate for demand accesses
system.cpu0.dcache.demand_miss_rate::total     0.000142                       # miss rate for demand accesses
system.cpu0.dcache.overall_miss_rate::cpu0.data     0.000142                       # miss rate for overall accesses
system.cpu0.dcache.overall_miss_rate::total     0.000142                       # miss rate for overall accesses
system.cpu0.dcache.ReadReq_avg_miss_latency::cpu0.data 26292.056075                       # average ReadReq miss latency
system.cpu0.dcache.ReadReq_avg_miss_latency::total 26292.056075                       # average ReadReq miss latency
system.cpu0.dcache.WriteReq_avg_miss_latency::cpu0.data 56458.509142                       # average WriteReq miss latency
system.cpu0.dcache.WriteReq_avg_miss_latency::total 56458.509142                       # average WriteReq miss latency
system.cpu0.dcache.LoadLockedReq_avg_miss_latency::cpu0.data 39666.666667                       # average LoadLockedReq miss latency
system.cpu0.dcache.LoadLockedReq_avg_miss_latency::total 39666.666667                       # average LoadLockedReq miss latency
system.cpu0.dcache.demand_avg_miss_latency::cpu0.data 39979.578813                       # average overall miss latency
system.cpu0.dcache.demand_avg_miss_latency::total 39979.578813                       # average overall miss latency
system.cpu0.dcache.overall_avg_miss_latency::cpu0.data 39979.578813                       # average overall miss latency
system.cpu0.dcache.overall_avg_miss_latency::total 39979.578813                       # average overall miss latency
system.cpu0.dcache.blocked_cycles::no_mshrs           32                       # number of cycles access was blocked
system.cpu0.dcache.blocked_cycles::no_targets            0                       # number of cycles access was blocked
system.cpu0.dcache.blocked::no_mshrs                1                       # number of cycles access was blocked
system.cpu0.dcache.blocked::no_targets              0                       # number of cycles access was blocked
system.cpu0.dcache.avg_blocked_cycles::no_mshrs           32                       # average number of cycles each access was blocked
system.cpu0.dcache.avg_blocked_cycles::no_targets          nan                       # average number of cycles each access was blocked
system.cpu0.dcache.writebacks::writebacks          103                       # number of writebacks
system.cpu0.dcache.writebacks::total              103                       # number of writebacks
system.cpu0.dcache.ReadReq_mshr_hits::cpu0.data          277                       # number of ReadReq MSHR hits
system.cpu0.dcache.ReadReq_mshr_hits::total          277                       # number of ReadReq MSHR hits
system.cpu0.dcache.WriteReq_mshr_hits::cpu0.data          487                       # number of WriteReq MSHR hits
system.cpu0.dcache.WriteReq_mshr_hits::total          487                       # number of WriteReq MSHR hits
system.cpu0.dcache.LoadLockedReq_mshr_hits::cpu0.data            3                       # number of LoadLockedReq MSHR hits
system.cpu0.dcache.LoadLockedReq_mshr_hits::total            3                       # number of LoadLockedReq MSHR hits
system.cpu0.dcache.demand_mshr_hits::cpu0.data          764                       # number of demand (read+write) MSHR hits
system.cpu0.dcache.demand_mshr_hits::total          764                       # number of demand (read+write) MSHR hits
system.cpu0.dcache.overall_mshr_hits::cpu0.data          764                       # number of overall MSHR hits
system.cpu0.dcache.overall_mshr_hits::total          764                       # number of overall MSHR hits
system.cpu0.dcache.ReadReq_mshr_misses::cpu0.data          579                       # number of ReadReq MSHR misses
system.cpu0.dcache.ReadReq_mshr_misses::total          579                       # number of ReadReq MSHR misses
system.cpu0.dcache.WriteReq_mshr_misses::cpu0.data          224                       # number of WriteReq MSHR misses
system.cpu0.dcache.WriteReq_mshr_misses::total          224                       # number of WriteReq MSHR misses
system.cpu0.dcache.demand_mshr_misses::cpu0.data          803                       # number of demand (read+write) MSHR misses
system.cpu0.dcache.demand_mshr_misses::total          803                       # number of demand (read+write) MSHR misses
system.cpu0.dcache.overall_mshr_misses::cpu0.data          803                       # number of overall MSHR misses
system.cpu0.dcache.overall_mshr_misses::total          803                       # number of overall MSHR misses
system.cpu0.dcache.ReadReq_mshr_miss_latency::cpu0.data     13729000                       # number of ReadReq MSHR miss cycles
system.cpu0.dcache.ReadReq_mshr_miss_latency::total     13729000                       # number of ReadReq MSHR miss cycles
system.cpu0.dcache.WriteReq_mshr_miss_latency::cpu0.data     13614500                       # number of WriteReq MSHR miss cycles
system.cpu0.dcache.WriteReq_mshr_miss_latency::total     13614500                       # number of WriteReq MSHR miss cycles
system.cpu0.dcache.demand_mshr_miss_latency::cpu0.data     27343500                       # number of demand (read+write) MSHR miss cycles
system.cpu0.dcache.demand_mshr_miss_latency::total     27343500                       # number of demand (read+write) MSHR miss cycles
system.cpu0.dcache.overall_mshr_miss_latency::cpu0.data     27343500                       # number of overall MSHR miss cycles
system.cpu0.dcache.overall_mshr_miss_latency::total     27343500                       # number of overall MSHR miss cycles
system.cpu0.dcache.ReadReq_mshr_miss_rate::cpu0.data     0.000103                       # mshr miss rate for ReadReq accesses
system.cpu0.dcache.ReadReq_mshr_miss_rate::total     0.000103                       # mshr miss rate for ReadReq accesses
system.cpu0.dcache.WriteReq_mshr_miss_rate::cpu0.data     0.000041                       # mshr miss rate for WriteReq accesses
system.cpu0.dcache.WriteReq_mshr_miss_rate::total     0.000041                       # mshr miss rate for WriteReq accesses
system.cpu0.dcache.demand_mshr_miss_rate::cpu0.data     0.000073                       # mshr miss rate for demand accesses
system.cpu0.dcache.demand_mshr_miss_rate::total     0.000073                       # mshr miss rate for demand accesses
system.cpu0.dcache.overall_mshr_miss_rate::cpu0.data     0.000073                       # mshr miss rate for overall accesses
system.cpu0.dcache.overall_mshr_miss_rate::total     0.000073                       # mshr miss rate for overall accesses
system.cpu0.dcache.ReadReq_avg_mshr_miss_latency::cpu0.data 23711.571675                       # average ReadReq mshr miss latency
system.cpu0.dcache.ReadReq_avg_mshr_miss_latency::total 23711.571675                       # average ReadReq mshr miss latency
system.cpu0.dcache.WriteReq_avg_mshr_miss_latency::cpu0.data 60779.017857                       # average WriteReq mshr miss latency
system.cpu0.dcache.WriteReq_avg_mshr_miss_latency::total 60779.017857                       # average WriteReq mshr miss latency
system.cpu0.dcache.demand_avg_mshr_miss_latency::cpu0.data 34051.681196                       # average overall mshr miss latency
system.cpu0.dcache.demand_avg_mshr_miss_latency::total 34051.681196                       # average overall mshr miss latency
system.cpu0.dcache.overall_avg_mshr_miss_latency::cpu0.data 34051.681196                       # average overall mshr miss latency
system.cpu0.dcache.overall_avg_mshr_miss_latency::total 34051.681196                       # average overall mshr miss latency
system.cpu0.icache.tags.pwrStateResidencyTicks::UNDEFINED  27887850000                       # Cumulative time (in ticks) in various power states
system.cpu0.icache.tags.replacements            36066                       # number of replacements
system.cpu0.icache.tags.tagsinuse          304.960315                       # Cycle average of tags in use
system.cpu0.icache.tags.total_refs           10015322                       # Total number of references to valid blocks.
system.cpu0.icache.tags.sampled_refs            36542                       # Sample count of references to valid blocks.
system.cpu0.icache.tags.avg_refs           274.077007                       # Average number of references to valid blocks.
system.cpu0.icache.tags.warmup_cycle                0                       # Cycle when the warmup percentage was hit.
system.cpu0.icache.tags.occ_blocks::cpu0.inst   304.960315                       # Average occupied blocks per requestor
system.cpu0.icache.tags.occ_percent::cpu0.inst     0.595626                       # Average percentage of cache occupancy
system.cpu0.icache.tags.occ_percent::total     0.595626                       # Average percentage of cache occupancy
system.cpu0.icache.tags.occ_task_id_blocks::1024          476                       # Occupied blocks per task id
system.cpu0.icache.tags.age_task_id_blocks_1024::0          130                       # Occupied blocks per task id
system.cpu0.icache.tags.age_task_id_blocks_1024::1            2                       # Occupied blocks per task id
system.cpu0.icache.tags.age_task_id_blocks_1024::3          246                       # Occupied blocks per task id
system.cpu0.icache.tags.age_task_id_blocks_1024::4           98                       # Occupied blocks per task id
system.cpu0.icache.tags.occ_task_id_percent::1024     0.929688                       # Percentage of cache occupancy per task id
system.cpu0.icache.tags.tag_accesses         20142488                       # Number of tag accesses
system.cpu0.icache.tags.data_accesses        20142488                       # Number of data accesses
system.cpu0.icache.pwrStateResidencyTicks::UNDEFINED  27887850000                       # Cumulative time (in ticks) in various power states
system.cpu0.icache.ReadReq_hits::cpu0.inst     10015322                       # number of ReadReq hits
system.cpu0.icache.ReadReq_hits::total       10015322                       # number of ReadReq hits
system.cpu0.icache.demand_hits::cpu0.inst     10015322                       # number of demand (read+write) hits
system.cpu0.icache.demand_hits::total        10015322                       # number of demand (read+write) hits
system.cpu0.icache.overall_hits::cpu0.inst     10015322                       # number of overall hits
system.cpu0.icache.overall_hits::total       10015322                       # number of overall hits
system.cpu0.icache.ReadReq_misses::cpu0.inst        37651                       # number of ReadReq misses
system.cpu0.icache.ReadReq_misses::total        37651                       # number of ReadReq misses
system.cpu0.icache.demand_misses::cpu0.inst        37651                       # number of demand (read+write) misses
system.cpu0.icache.demand_misses::total         37651                       # number of demand (read+write) misses
system.cpu0.icache.overall_misses::cpu0.inst        37651                       # number of overall misses
system.cpu0.icache.overall_misses::total        37651                       # number of overall misses
system.cpu0.icache.ReadReq_miss_latency::cpu0.inst    608082000                       # number of ReadReq miss cycles
system.cpu0.icache.ReadReq_miss_latency::total    608082000                       # number of ReadReq miss cycles
system.cpu0.icache.demand_miss_latency::cpu0.inst    608082000                       # number of demand (read+write) miss cycles
system.cpu0.icache.demand_miss_latency::total    608082000                       # number of demand (read+write) miss cycles
system.cpu0.icache.overall_miss_latency::cpu0.inst    608082000                       # number of overall miss cycles
system.cpu0.icache.overall_miss_latency::total    608082000                       # number of overall miss cycles
system.cpu0.icache.ReadReq_accesses::cpu0.inst     10052973                       # number of ReadReq accesses(hits+misses)
system.cpu0.icache.ReadReq_accesses::total     10052973                       # number of ReadReq accesses(hits+misses)
system.cpu0.icache.demand_accesses::cpu0.inst     10052973                       # number of demand (read+write) accesses
system.cpu0.icache.demand_accesses::total     10052973                       # number of demand (read+write) accesses
system.cpu0.icache.overall_accesses::cpu0.inst     10052973                       # number of overall (read+write) accesses
system.cpu0.icache.overall_accesses::total     10052973                       # number of overall (read+write) accesses
system.cpu0.icache.ReadReq_miss_rate::cpu0.inst     0.003745                       # miss rate for ReadReq accesses
system.cpu0.icache.ReadReq_miss_rate::total     0.003745                       # miss rate for ReadReq accesses
system.cpu0.icache.demand_miss_rate::cpu0.inst     0.003745                       # miss rate for demand accesses
system.cpu0.icache.demand_miss_rate::total     0.003745                       # miss rate for demand accesses
system.cpu0.icache.overall_miss_rate::cpu0.inst     0.003745                       # miss rate for overall accesses
system.cpu0.icache.overall_miss_rate::total     0.003745                       # miss rate for overall accesses
system.cpu0.icache.ReadReq_avg_miss_latency::cpu0.inst 16150.487371                       # average ReadReq miss latency
system.cpu0.icache.ReadReq_avg_miss_latency::total 16150.487371                       # average ReadReq miss latency
system.cpu0.icache.demand_avg_miss_latency::cpu0.inst 16150.487371                       # average overall miss latency
system.cpu0.icache.demand_avg_miss_latency::total 16150.487371                       # average overall miss latency
system.cpu0.icache.overall_avg_miss_latency::cpu0.inst 16150.487371                       # average overall miss latency
system.cpu0.icache.overall_avg_miss_latency::total 16150.487371                       # average overall miss latency
system.cpu0.icache.blocked_cycles::no_mshrs           73                       # number of cycles access was blocked
system.cpu0.icache.blocked_cycles::no_targets            0                       # number of cycles access was blocked
system.cpu0.icache.blocked::no_mshrs                2                       # number of cycles access was blocked
system.cpu0.icache.blocked::no_targets              0                       # number of cycles access was blocked
system.cpu0.icache.avg_blocked_cycles::no_mshrs    36.500000                       # average number of cycles each access was blocked
system.cpu0.icache.avg_blocked_cycles::no_targets          nan                       # average number of cycles each access was blocked
system.cpu0.icache.writebacks::writebacks        36066                       # number of writebacks
system.cpu0.icache.writebacks::total            36066                       # number of writebacks
system.cpu0.icache.ReadReq_mshr_hits::cpu0.inst         1108                       # number of ReadReq MSHR hits
system.cpu0.icache.ReadReq_mshr_hits::total         1108                       # number of ReadReq MSHR hits
system.cpu0.icache.demand_mshr_hits::cpu0.inst         1108                       # number of demand (read+write) MSHR hits
system.cpu0.icache.demand_mshr_hits::total         1108                       # number of demand (read+write) MSHR hits
system.cpu0.icache.overall_mshr_hits::cpu0.inst         1108                       # number of overall MSHR hits
system.cpu0.icache.overall_mshr_hits::total         1108                       # number of overall MSHR hits
system.cpu0.icache.ReadReq_mshr_misses::cpu0.inst        36543                       # number of ReadReq MSHR misses
system.cpu0.icache.ReadReq_mshr_misses::total        36543                       # number of ReadReq MSHR misses
[...]
system.l2.ReadSharedReq_mshr_miss_latency::total      8984000                       # number of ReadSharedReq MSHR miss cycles
system.l2.demand_mshr_miss_latency::cpu0.inst     36530000                       # number of demand (read+write) MSHR miss cycles
system.l2.demand_mshr_miss_latency::cpu0.data     17946000                       # number of demand (read+write) MSHR miss cycles
system.l2.demand_mshr_miss_latency::cpu1.inst      2606000                       # number of demand (read+write) MSHR miss cycles
system.l2.demand_mshr_miss_latency::cpu1.data      6197500                       # number of demand (read+write) MSHR miss cycles
system.l2.demand_mshr_miss_latency::cpu2.inst      4294000                       # number of demand (read+write) MSHR miss cycles
system.l2.demand_mshr_miss_latency::cpu2.data      7010500                       # number of demand (read+write) MSHR miss cycles
system.l2.demand_mshr_miss_latency::total     74584000                       # number of demand (read+write) MSHR miss cycles
system.l2.overall_mshr_miss_latency::cpu0.inst     36530000                       # number of overall MSHR miss cycles
system.l2.overall_mshr_miss_latency::cpu0.data     17946000                       # number of overall MSHR miss cycles
system.l2.overall_mshr_miss_latency::cpu1.inst      2606000                       # number of overall MSHR miss cycles
system.l2.overall_mshr_miss_latency::cpu1.data      6197500                       # number of overall MSHR miss cycles
system.l2.overall_mshr_miss_latency::cpu2.inst      4294000                       # number of overall MSHR miss cycles
system.l2.overall_mshr_miss_latency::cpu2.data      7010500                       # number of overall MSHR miss cycles
system.l2.overall_mshr_miss_latency::total     74584000                       # number of overall MSHR miss cycles
system.l2.ReadExReq_mshr_miss_rate::cpu0.data     0.963636                       # mshr miss rate for ReadExReq accesses
system.l2.ReadExReq_mshr_miss_rate::cpu1.data     0.800000                       # mshr miss rate for ReadExReq accesses
system.l2.ReadExReq_mshr_miss_rate::cpu2.data     0.882812                       # mshr miss rate for ReadExReq accesses
system.l2.ReadExReq_mshr_miss_rate::total     0.896480                       # mshr miss rate for ReadExReq accesses
system.l2.ReadCleanReq_mshr_miss_rate::cpu0.inst     0.019511                       # mshr miss rate for ReadCleanReq accesses
system.l2.ReadCleanReq_mshr_miss_rate::cpu1.inst     0.001648                       # mshr miss rate for ReadCleanReq accesses
system.l2.ReadCleanReq_mshr_miss_rate::cpu2.inst     0.002345                       # mshr miss rate for ReadCleanReq accesses
system.l2.ReadCleanReq_mshr_miss_rate::total     0.008208                       # mshr miss rate for ReadCleanReq accesses
system.l2.ReadSharedReq_mshr_miss_rate::cpu0.data     0.342569                       # mshr miss rate for ReadSharedReq accesses
system.l2.ReadSharedReq_mshr_miss_rate::cpu1.data     0.106557                       # mshr miss rate for ReadSharedReq accesses
system.l2.ReadSharedReq_mshr_miss_rate::cpu2.data     0.077922                       # mshr miss rate for ReadSharedReq accesses
system.l2.ReadSharedReq_mshr_miss_rate::total     0.209190                       # mshr miss rate for ReadSharedReq accesses
system.l2.demand_mshr_miss_rate::cpu0.inst     0.019511                       # mshr miss rate for demand accesses
system.l2.demand_mshr_miss_rate::cpu0.data     0.564019                       # mshr miss rate for demand accesses
system.l2.demand_mshr_miss_rate::cpu1.inst     0.001648                       # mshr miss rate for demand accesses
system.l2.demand_mshr_miss_rate::cpu1.data     0.470817                       # mshr miss rate for demand accesses
system.l2.demand_mshr_miss_rate::cpu2.inst     0.002345                       # mshr miss rate for demand accesses
system.l2.demand_mshr_miss_rate::cpu2.data     0.314220                       # mshr miss rate for demand accesses
system.l2.demand_mshr_miss_rate::total       0.013897                       # mshr miss rate for demand accesses
system.l2.overall_mshr_miss_rate::cpu0.inst     0.019511                       # mshr miss rate for overall accesses
system.l2.overall_mshr_miss_rate::cpu0.data     0.564019                       # mshr miss rate for overall accesses
system.l2.overall_mshr_miss_rate::cpu1.inst     0.001648                       # mshr miss rate for overall accesses
system.l2.overall_mshr_miss_rate::cpu1.data     0.470817                       # mshr miss rate for overall accesses
system.l2.overall_mshr_miss_rate::cpu2.inst     0.002345                       # mshr miss rate for overall accesses
system.l2.overall_mshr_miss_rate::cpu2.data     0.314220                       # mshr miss rate for overall accesses
system.l2.overall_mshr_miss_rate::total      0.013897                       # mshr miss rate for overall accesses
system.l2.ReadExReq_avg_mshr_miss_latency::cpu0.data 51219.339623                       # average ReadExReq mshr miss latency
system.l2.ReadExReq_avg_mshr_miss_latency::cpu1.data 51208.333333                       # average ReadExReq mshr miss latency
system.l2.ReadExReq_avg_mshr_miss_latency::cpu2.data 51159.292035                       # average ReadExReq mshr miss latency
system.l2.ReadExReq_avg_mshr_miss_latency::total 51200.923788                       # average ReadExReq mshr miss latency
system.l2.ReadCleanReq_avg_mshr_miss_latency::cpu0.inst 51234.221599                       # average ReadCleanReq mshr miss latency
system.l2.ReadCleanReq_avg_mshr_miss_latency::cpu1.inst 51098.039216                       # average ReadCleanReq mshr miss latency
system.l2.ReadCleanReq_avg_mshr_miss_latency::cpu2.inst 51119.047619                       # average ReadCleanReq mshr miss latency
system.l2.ReadCleanReq_avg_mshr_miss_latency::total 51214.622642                       # average ReadCleanReq mshr miss latency
system.l2.ReadSharedReq_avg_mshr_miss_latency::cpu0.data 52113.970588                       # average ReadSharedReq mshr miss latency
system.l2.ReadSharedReq_avg_mshr_miss_latency::cpu1.data 51307.692308                       # average ReadSharedReq mshr miss latency
system.l2.ReadSharedReq_avg_mshr_miss_latency::cpu2.data 51229.166667                       # average ReadSharedReq mshr miss latency
system.l2.ReadSharedReq_avg_mshr_miss_latency::total 51930.635838                       # average ReadSharedReq mshr miss latency
system.l2.demand_avg_mshr_miss_latency::cpu0.inst 51234.221599                       # average overall mshr miss latency
system.l2.demand_avg_mshr_miss_latency::cpu0.data 51568.965517                       # average overall mshr miss latency
system.l2.demand_avg_mshr_miss_latency::cpu1.inst 51098.039216                       # average overall mshr miss latency
system.l2.demand_avg_mshr_miss_latency::cpu1.data 51219.008264                       # average overall mshr miss latency
system.l2.demand_avg_mshr_miss_latency::cpu2.inst 51119.047619                       # average overall mshr miss latency
system.l2.demand_avg_mshr_miss_latency::cpu2.data 51171.532847                       # average overall mshr miss latency
system.l2.demand_avg_mshr_miss_latency::total 51295.735901                       # average overall mshr miss latency
system.l2.overall_avg_mshr_miss_latency::cpu0.inst 51234.221599                       # average overall mshr miss latency
system.l2.overall_avg_mshr_miss_latency::cpu0.data 51568.965517                       # average overall mshr miss latency
system.l2.overall_avg_mshr_miss_latency::cpu1.inst 51098.039216                       # average overall mshr miss latency
system.l2.overall_avg_mshr_miss_latency::cpu1.data 51219.008264                       # average overall mshr miss latency
system.l2.overall_avg_mshr_miss_latency::cpu2.inst 51119.047619                       # average overall mshr miss latency
system.l2.overall_avg_mshr_miss_latency::cpu2.data 51171.532847                       # average overall mshr miss latency
system.l2.overall_avg_mshr_miss_latency::total 51295.735901                       # average overall mshr miss latency
system.membus.snoop_filter.tot_requests          1943                       # Total number of requests made to the snoop filter.
system.membus.snoop_filter.hit_single_requests          338                       # Number of requests hitting in the snoop filter with a single holder of the requested data.
system.membus.snoop_filter.hit_multi_requests            0                       # Number of requests hitting in the snoop filter with multiple (>1) holders of the requested data.
system.membus.snoop_filter.tot_snoops               0                       # Total number of snoops made to the snoop filter.
system.membus.snoop_filter.hit_single_snoops            0                       # Number of snoops hitting in the snoop filter with a single holder of the requested data.
system.membus.snoop_filter.hit_multi_snoops            0                       # Number of snoops hitting in the snoop filter with multiple (>1) holders of the requested data.
system.membus.pwrStateResidencyTicks::UNDEFINED  27887850000                       # Cumulative time (in ticks) in various power states
system.membus.trans_dist::ReadResp               1020                       # Transaction distribution
system.membus.trans_dist::UpgradeReq                5                       # Transaction distribution
system.membus.trans_dist::SCUpgradeReq            332                       # Transaction distribution
system.membus.trans_dist::ReadExReq               434                       # Transaction distribution
system.membus.trans_dist::ReadExResp              433                       # Transaction distribution
system.membus.trans_dist::ReadSharedReq          1020                       # Transaction distribution
system.membus.pkt_count_system.l2.mem_side::system.physmem.port         3244                       # Packet count per connected master and slave (bytes)
system.membus.pkt_count::total                   3244                       # Packet count per connected master and slave (bytes)
system.membus.pkt_size_system.l2.mem_side::system.physmem.port        92992                       # Cumulative packet size per connected master and slave (bytes)
system.membus.pkt_size::total                   92992                       # Cumulative packet size per connected master and slave (bytes)
system.membus.snoops                              338                       # Total snoops (count)
system.membus.snoopTraffic                          0                       # Total snoop traffic (bytes)
system.membus.snoop_fanout::samples              1943                       # Request fanout histogram
system.membus.snoop_fanout::mean                    0                       # Request fanout histogram
system.membus.snoop_fanout::stdev                   0                       # Request fanout histogram
system.membus.snoop_fanout::underflows              0      0.00%      0.00% # Request fanout histogram
system.membus.snoop_fanout::0                    1943    100.00%    100.00% # Request fanout histogram
system.membus.snoop_fanout::1                       0      0.00%    100.00% # Request fanout histogram
system.membus.snoop_fanout::overflows               0      0.00%    100.00% # Request fanout histogram
system.membus.snoop_fanout::min_value               0                       # Request fanout histogram
system.membus.snoop_fanout::max_value               0                       # Request fanout histogram
system.membus.snoop_fanout::total                1943                       # Request fanout histogram
system.membus.reqLayer0.occupancy             2385184                       # Layer occupancy (ticks)
system.membus.reqLayer0.utilization               0.0                       # Layer utilization (%)
system.membus.respLayer1.occupancy            7265000                       # Layer occupancy (ticks)
system.membus.respLayer1.utilization              0.0                       # Layer utilization (%)
system.tol2bus.snoop_filter.tot_requests       209288                       # Total number of requests made to the snoop filter.
system.tol2bus.snoop_filter.hit_single_requests        98212                       # Number of requests hitting in the snoop filter with a single holder of the requested data.
system.tol2bus.snoop_filter.hit_multi_requests        54128                       # Number of requests hitting in the snoop filter with multiple (>1) holders of the requested data.
system.tol2bus.snoop_filter.tot_snoops              0                       # Total number of snoops made to the snoop filter.
system.tol2bus.snoop_filter.hit_single_snoops            0                       # Number of snoops hitting in the snoop filter with a single holder of the requested data.
system.tol2bus.snoop_filter.hit_multi_snoops            0                       # Number of snoops hitting in the snoop filter with multiple (>1) holders of the requested data.
system.tol2bus.pwrStateResidencyTicks::UNDEFINED  27887850000                       # Cumulative time (in ticks) in various power states
system.tol2bus.trans_dist::ReadResp            104928                       # Transaction distribution
system.tol2bus.trans_dist::WritebackDirty          151                       # Transaction distribution
system.tol2bus.trans_dist::WritebackClean       102523                       # Transaction distribution
system.tol2bus.trans_dist::CleanEvict             849                       # Transaction distribution
system.tol2bus.trans_dist::UpgradeReq              16                       # Transaction distribution
system.tol2bus.trans_dist::SCUpgradeReq           332                       # Transaction distribution
system.tol2bus.trans_dist::UpgradeResp            348                       # Transaction distribution
system.tol2bus.trans_dist::ReadExReq              488                       # Transaction distribution
system.tol2bus.trans_dist::ReadExResp             488                       # Transaction distribution
system.tol2bus.trans_dist::ReadCleanReq        103316                       # Transaction distribution
system.tol2bus.trans_dist::ReadSharedReq         1613                       # Transaction distribution
system.tol2bus.pkt_count_system.cpu0.icache.mem_side::system.l2.cpu_side       109151                       # Packet count per connected master and slave (bytes)
system.tol2bus.pkt_count_system.cpu0.dcache.mem_side::system.l2.cpu_side         1803                       # Packet count per connected master and slave (bytes)
system.tol2bus.pkt_count_system.cpu1.icache.mem_side::system.l2.cpu_side        92681                       # Packet count per connected master and slave (bytes)
system.tol2bus.pkt_count_system.cpu1.dcache.mem_side::system.l2.cpu_side         1133                       # Packet count per connected master and slave (bytes)
system.tol2bus.pkt_count_system.cpu2.icache.mem_side::system.l2.cpu_side       107322                       # Packet count per connected master and slave (bytes)
system.tol2bus.pkt_count_system.cpu2.dcache.mem_side::system.l2.cpu_side         1834                       # Packet count per connected master and slave (bytes)
system.tol2bus.pkt_count::total                313924                       # Packet count per connected master and slave (bytes)
system.tol2bus.pkt_size_system.cpu0.icache.mem_side::system.l2.cpu_side      4646912                       # Cumulative packet size per connected master and slave (bytes)
system.tol2bus.pkt_size_system.cpu0.dcache.mem_side::system.l2.cpu_side        46080                       # Cumulative packet size per connected master and slave (bytes)
system.tol2bus.pkt_size_system.cpu1.icache.mem_side::system.l2.cpu_side      3951040                       # Cumulative packet size per connected master and slave (bytes)
system.tol2bus.pkt_size_system.cpu1.dcache.mem_side::system.l2.cpu_side        18496                       # Cumulative packet size per connected master and slave (bytes)
system.tol2bus.pkt_size_system.cpu2.icache.mem_side::system.l2.cpu_side      4575680                       # Cumulative packet size per connected master and slave (bytes)
system.tol2bus.pkt_size_system.cpu2.dcache.mem_side::system.l2.cpu_side        28928                       # Cumulative packet size per connected master and slave (bytes)
system.tol2bus.pkt_size::total               13267136                       # Cumulative packet size per connected master and slave (bytes)
system.tol2bus.snoops                            1128                       # Total snoops (count)
system.tol2bus.snoopTraffic                     50624                       # Total snoop traffic (bytes)
system.tol2bus.snoop_fanout::samples           105765                       # Request fanout histogram
system.tol2bus.snoop_fanout::mean            0.525854                       # Request fanout histogram
system.tol2bus.snoop_fanout::stdev           0.625835                       # Request fanout histogram
system.tol2bus.snoop_fanout::underflows             0      0.00%      0.00% # Request fanout histogram
system.tol2bus.snoop_fanout::0                  56948     53.84%     53.84% # Request fanout histogram
system.tol2bus.snoop_fanout::1                  42741     40.41%     94.26% # Request fanout histogram
system.tol2bus.snoop_fanout::2                   5355      5.06%     99.32% # Request fanout histogram
system.tol2bus.snoop_fanout::3                    718      0.68%    100.00% # Request fanout histogram
system.tol2bus.snoop_fanout::4                      3      0.00%    100.00% # Request fanout histogram
system.tol2bus.snoop_fanout::5                      0      0.00%    100.00% # Request fanout histogram
system.tol2bus.snoop_fanout::6                      0      0.00%    100.00% # Request fanout histogram
system.tol2bus.snoop_fanout::overflows              0      0.00%    100.00% # Request fanout histogram
system.tol2bus.snoop_fanout::min_value              0                       # Request fanout histogram
system.tol2bus.snoop_fanout::max_value              4                       # Request fanout histogram
system.tol2bus.snoop_fanout::total             105765                       # Request fanout histogram
system.tol2bus.reqLayer0.occupancy          207318499                       # Layer occupancy (ticks)
system.tol2bus.reqLayer0.utilization              0.7                       # Layer utilization (%)
system.tol2bus.respLayer0.occupancy          54814996                       # Layer occupancy (ticks)
system.tol2bus.respLayer0.utilization             0.2                       # Layer utilization (%)
system.tol2bus.respLayer1.occupancy           1205490                       # Layer occupancy (ticks)
system.tol2bus.respLayer1.utilization             0.0                       # Layer utilization (%)
system.tol2bus.respLayer4.occupancy          46455926                       # Layer occupancy (ticks)
system.tol2bus.respLayer4.utilization             0.2                       # Layer utilization (%)
system.tol2bus.respLayer5.occupancy            862991                       # Layer occupancy (ticks)
system.tol2bus.respLayer5.utilization             0.0                       # Layer utilization (%)
system.tol2bus.respLayer8.occupancy          53764951                       # Layer occupancy (ticks)
system.tol2bus.respLayer8.utilization             0.2                       # Layer utilization (%)
system.tol2bus.respLayer9.occupancy           1270989                       # Layer occupancy (ticks)
system.tol2bus.respLayer9.utilization             0.0                       # Layer utilization (%)

---------- End Simulation Statistics   ----------
