
---------- Begin Simulation Statistics ----------
sim_seconds                                  0.030452                       # Number of seconds simulated
sim_ticks                                 30452422000                       # Number of ticks simulated
final_tick                                30452422000                       # Number of ticks from beginning of simulation (restored from checkpoints and never reset)
sim_freq                                 1000000000000                       # Frequency of simulated ticks
host_inst_rate                                 273350                       # Simulator instruction rate (inst/s)
host_op_rate                                   295611                       # Simulator op (including micro ops) rate (op/s)
host_tick_rate                               96260049                       # Simulator tick rate (ticks/s)
host_mem_usage                                 676592                       # Number of bytes of host memory used
host_seconds                                   316.36                       # Real time elapsed on the host
sim_insts                                    86475947                       # Number of instructions simulated
sim_ops                                      93518108                       # Number of ops (including micro ops) simulated
system.voltage_domain.voltage                       1                       # Voltage in Volts
system.clk_domain.clock                          1000                       # Clock period in ticks
system.physmem.pwrStateResidencyTicks::UNDEFINED  30452422000                       # Cumulative time (in ticks) in various power states
system.physmem.bytes_read::cpu0.inst            44096                       # Number of bytes read from this memory
system.physmem.bytes_read::cpu0.data            22912                       # Number of bytes read from this memory
system.physmem.bytes_read::cpu1.inst             4864                       # Number of bytes read from this memory
system.physmem.bytes_read::cpu1.data             7360                       # Number of bytes read from this memory
system.physmem.bytes_read::cpu2.inst             4544                       # Number of bytes read from this memory
system.physmem.bytes_read::cpu2.data             8896                       # Number of bytes read from this memory
system.physmem.bytes_read::total                92672                       # Number of bytes read from this memory
system.physmem.bytes_inst_read::cpu0.inst        44096                       # Number of instructions bytes read from this memory
system.physmem.bytes_inst_read::cpu1.inst         4864                       # Number of instructions bytes read from this memory
system.physmem.bytes_inst_read::cpu2.inst         4544                       # Number of instructions bytes read from this memory
system.physmem.bytes_inst_read::total           53504                       # Number of instructions bytes read from this memory
system.physmem.num_reads::cpu0.inst               689                       # Number of read requests responded to by this memory
system.physmem.num_reads::cpu0.data               358                       # Number of read requests responded to by this memory
system.physmem.num_reads::cpu1.inst                76                       # Number of read requests responded to by this memory
system.physmem.num_reads::cpu1.data               115                       # Number of read requests responded to by this memory
system.physmem.num_reads::cpu2.inst                71                       # Number of read requests responded to by this memory
system.physmem.num_reads::cpu2.data               139                       # Number of read requests responded to by this memory
system.physmem.num_reads::total                  1448                       # Number of read requests responded to by this memory
system.physmem.bw_read::cpu0.inst             1448029                       # Total read bandwidth from this memory (bytes/s)
system.physmem.bw_read::cpu0.data              752387                       # Total read bandwidth from this memory (bytes/s)
system.physmem.bw_read::cpu1.inst              159725                       # Total read bandwidth from this memory (bytes/s)
system.physmem.bw_read::cpu1.data              241688                       # Total read bandwidth from this memory (bytes/s)
system.physmem.bw_read::cpu2.inst              149216                       # Total read bandwidth from this memory (bytes/s)
system.physmem.bw_read::cpu2.data              292128                       # Total read bandwidth from this memory (bytes/s)
system.physmem.bw_read::total                 3043173                       # Total read bandwidth from this memory (bytes/s)
system.physmem.bw_inst_read::cpu0.inst        1448029                       # Instruction read bandwidth from this memory (bytes/s)
system.physmem.bw_inst_read::cpu1.inst         159725                       # Instruction read bandwidth from this memory (bytes/s)
system.physmem.bw_inst_read::cpu2.inst         149216                       # Instruction read bandwidth from this memory (bytes/s)
system.physmem.bw_inst_read::total            1756970                       # Instruction read bandwidth from this memory (bytes/s)
system.physmem.bw_total::cpu0.inst            1448029                       # Total bandwidth to/from this memory (bytes/s)
system.physmem.bw_total::cpu0.data             752387                       # Total bandwidth to/from this memory (bytes/s)
system.physmem.bw_total::cpu1.inst             159725                       # Total bandwidth to/from this memory (bytes/s)
system.physmem.bw_total::cpu1.data             241688                       # Total bandwidth to/from this memory (bytes/s)
system.physmem.bw_total::cpu2.inst             149216                       # Total bandwidth to/from this memory (bytes/s)
system.physmem.bw_total::cpu2.data             292128                       # Total bandwidth to/from this memory (bytes/s)
system.physmem.bw_total::total                3043173                       # Total bandwidth to/from this memory (bytes/s)
system.pwrStateResidencyTicks::UNDEFINED  30452422000                       # Cumulative time (in ticks) in various power states
system.cpu0.branchPred.lookups                9614759                       # Number of BP lookups
system.cpu0.branchPred.condPredicted          9248351                       # Number of conditional branches predicted
system.cpu0.branchPred.condIncorrect            25427                       # Number of conditional branches incorrect
system.cpu0.branchPred.BTBLookups             9151816                       # Number of BTB lookups
system.cpu0.branchPred.BTBHits                8991448                       # Number of BTB hits
system.cpu0.branchPred.BTBCorrect                   0                       # Number of correct BTB predictions (this stat may not work properly.
system.cpu0.branchPred.BTBHitPct            98.247692                       # BTB Hit Percentage
system.cpu0.branchPred.usedRAS                 135483                       # Number of times the RAS was used to get a target.
system.cpu0.branchPred.RASInCorrect              6561                       # Number of incorrect RAS predictions.
system.cpu0.branchPred.indirectLookups          50013                       # Number of indirect predictor lookups.
system.cpu0.branchPred.indirectHits             46099                       # Number of indirect target hits.
system.cpu0.branchPred.indirectMisses            3914                       # Number of indirect misses.
system.cpu0.branchPredindirectMispredicted         2911                       # Number of mispredicted indirect branches.
system.cpu0.dstage2_mmu.stage2_tlb.walker.pwrStateResidencyTicks::UNDEFINED  30452422000                       # Cumulative time (in ticks) in various power states
system.cpu0.dstage2_mmu.stage2_tlb.walker.walks            0                       # Table walker walks requested
system.cpu0.dstage2_mmu.stage2_tlb.walker.walkRequestOrigin_Requested::Data            0                       # Table walker requests started/completed, data/inst
system.cpu0.dstage2_mmu.stage2_tlb.walker.walkRequestOrigin_Requested::Inst            0                       # Table walker requests started/completed, data/inst
system.cpu0.dstage2_mmu.stage2_tlb.walker.walkRequestOrigin_Requested::total            0                       # Table walker requests started/completed, data/inst
system.cpu0.dstage2_mmu.stage2_tlb.walker.walkRequestOrigin_Completed::Data            0                       # Table walker requests started/completed, data/inst
system.cpu0.dstage2_mmu.stage2_tlb.walker.walkRequestOrigin_Completed::Inst            0                       # Table walker requests started/completed, data/inst
system.cpu0.dstage2_mmu.stage2_tlb.walker.walkRequestOrigin_Completed::total            0                       # Table walker requests started/completed, data/inst
system.cpu0.dstage2_mmu.stage2_tlb.walker.walkRequestOrigin::total            0                       # Table walker requests started/completed, data/inst
system.cpu0.dstage2_mmu.stage2_tlb.inst_hits            0                       # ITB inst hits
system.cpu0.dstage2_mmu.stage2_tlb.inst_misses            0                       # ITB inst misses
system.cpu0.dstage2_mmu.stage2_tlb.read_hits            0                       # DTB read hits
system.cpu0.dstage2_mmu.stage2_tlb.read_misses            0                       # DTB read misses
system.cpu0.dstage2_mmu.stage2_tlb.write_hits            0                       # DTB write hits
system.cpu0.dstage2_mmu.stage2_tlb.write_misses            0                       # DTB write misses
system.cpu0.dstage2_mmu.stage2_tlb.flush_tlb            0                       # Number of times complete TLB was flushed
system.cpu0.dstage2_mmu.stage2_tlb.flush_tlb_mva            0                       # Number of times TLB was flushed by MVA
system.cpu0.dstage2_mmu.stage2_tlb.flush_tlb_mva_asid            0                       # Number of times TLB was flushed by MVA & ASID
system.cpu0.dstage2_mmu.stage2_tlb.flush_tlb_asid            0                       # Number of times TLB was flushed by ASID
system.cpu0.dstage2_mmu.stage2_tlb.flush_entries            0                       # Number of entries that have been flushed from TLB
system.cpu0.dstage2_mmu.stage2_tlb.align_faults            0                       # Number of TLB faults due to alignment restrictions
system.cpu0.dstage2_mmu.stage2_tlb.prefetch_faults            0                       # Number of TLB faults due to prefetch
system.cpu0.dstage2_mmu.stage2_tlb.domain_faults            0                       # Number of TLB faults due to domain restrictions
system.cpu0.dstage2_mmu.stage2_tlb.perms_faults            0                       # Number of TLB faults due to permissions restrictions
system.cpu0.dstage2_mmu.stage2_tlb.read_accesses            0                       # DTB read accesses
system.cpu0.dstage2_mmu.stage2_tlb.write_accesses            0                       # DTB write accesses
system.cpu0.dstage2_mmu.stage2_tlb.inst_accesses            0                       # ITB inst accesses
system.cpu0.dstage2_mmu.stage2_tlb.hits             0                       # DTB hits
system.cpu0.dstage2_mmu.stage2_tlb.misses            0                       # DTB misses
system.cpu0.dstage2_mmu.stage2_tlb.accesses            0                       # DTB accesses
system.cpu0.dtb.walker.pwrStateResidencyTicks::UNDEFINED  30452422000                       # Cumulative time (in ticks) in various power states
system.cpu0.dtb.walker.walks                        0                       # Table walker walks requested
system.cpu0.dtb.walker.walkRequestOrigin_Requested::Data            0                       # Table walker requests started/completed, data/inst
system.cpu0.dtb.walker.walkRequestOrigin_Requested::Inst            0                       # Table walker requests started/completed, data/inst
system.cpu0.dtb.walker.walkRequestOrigin_Requested::total            0                       # Table walker requests started/completed, data/inst
system.cpu0.dtb.walker.walkRequestOrigin_Completed::Data            0                       # Table walker requests started/completed, data/inst
system.cpu0.dtb.walker.walkRequestOrigin_Completed::Inst            0                       # Table walker requests started/completed, data/inst
system.cpu0.dtb.walker.walkRequestOrigin_Completed::total            0                       # Table walker requests started/completed, data/inst
system.cpu0.dtb.walker.walkRequestOrigin::total            0                       # Table walker requests started/completed, data/inst
system.cpu0.dtb.inst_hits                           0                       # ITB inst hits
system.cpu0.dtb.inst_misses                         0                       # ITB inst misses
system.cpu0.dtb.read_hits                           0                       # DTB read hits
system.cpu0.dtb.read_misses                         0                       # DTB read misses
system.cpu0.dtb.write_hits                          0                       # DTB write hits
system.cpu0.dtb.write_misses                        0                       # DTB write misses
system.cpu0.dtb.flush_tlb                           0                       # Number of times complete TLB was flushed
system.cpu0.dtb.flush_tlb_mva                       0                       # Number of times TLB was flushed by MVA
system.cpu0.dtb.flush_tlb_mva_asid                  0                       # Number of times TLB was flushed by MVA & ASID
system.cpu0.dtb.flush_tlb_asid                      0                       # Number of times TLB was flushed by ASID
system.cpu0.dtb.flush_entries                       0                       # Number of entries that have been flushed from TLB
system.cpu0.dtb.align_faults                        0                       # Number of TLB faults due to alignment restrictions
system.cpu0.dtb.prefetch_faults                     0                       # Number of TLB faults due to prefetch
system.cpu0.dtb.domain_faults                       0                       # Number of TLB faults due to domain restrictions
system.cpu0.dtb.perms_faults                        0                       # Number of TLB faults due to permissions restrictions
system.cpu0.dtb.read_accesses                       0                       # DTB read accesses
system.cpu0.dtb.write_accesses                      0                       # DTB write accesses
system.cpu0.dtb.inst_accesses                       0                       # ITB inst accesses
system.cpu0.dtb.hits                                0                       # DTB hits
system.cpu0.dtb.misses                              0                       # DTB misses
system.cpu0.dtb.accesses                            0                       # DTB accesses
system.cpu0.istage2_mmu.stage2_tlb.walker.pwrStateResidencyTicks::UNDEFINED  30452422000                       # Cumulative time (in ticks) in various power states
system.cpu0.istage2_mmu.stage2_tlb.walker.walks            0                       # Table walker walks requested
system.cpu0.istage2_mmu.stage2_tlb.walker.walkRequestOrigin_Requested::Data            0                       # Table walker requests started/completed, data/inst
system.cpu0.istage2_mmu.stage2_tlb.walker.walkRequestOrigin_Requested::Inst            0                       # Table walker requests started/completed, data/inst
system.cpu0.istage2_mmu.stage2_tlb.walker.walkRequestOrigin_Requested::total            0                       # Table walker requests started/completed, data/inst
system.cpu0.istage2_mmu.stage2_tlb.walker.walkRequestOrigin_Completed::Data            0                       # Table walker requests started/completed, data/inst
system.cpu0.istage2_mmu.stage2_tlb.walker.walkRequestOrigin_Completed::Inst            0                       # Table walker requests started/completed, data/inst
system.cpu0.istage2_mmu.stage2_tlb.walker.walkRequestOrigin_Completed::total            0                       # Table walker requests started/completed, data/inst
system.cpu0.istage2_mmu.stage2_tlb.walker.walkRequestOrigin::total            0                       # Table walker requests started/completed, data/inst
system.cpu0.istage2_mmu.stage2_tlb.inst_hits            0                       # ITB inst hits
system.cpu0.istage2_mmu.stage2_tlb.inst_misses            0                       # ITB inst misses
system.cpu0.istage2_mmu.stage2_tlb.read_hits            0                       # DTB read hits
system.cpu0.istage2_mmu.stage2_tlb.read_misses            0                       # DTB read misses
system.cpu0.istage2_mmu.stage2_tlb.write_hits            0                       # DTB write hits
system.cpu0.istage2_mmu.stage2_tlb.write_misses            0                       # DTB write misses
system.cpu0.istage2_mmu.stage2_tlb.flush_tlb            0                       # Number of times complete TLB was flushed
system.cpu0.istage2_mmu.stage2_tlb.flush_tlb_mva            0                       # Number of times TLB was flushed by MVA
system.cpu0.istage2_mmu.stage2_tlb.flush_tlb_mva_asid            0                       # Number of times TLB was flushed by MVA & ASID
system.cpu0.istage2_mmu.stage2_tlb.flush_tlb_asid            0                       # Number of times TLB was flushed by ASID
system.cpu0.istage2_mmu.stage2_tlb.flush_entries            0                       # Number of entries that have been flushed from TLB
system.cpu0.istage2_mmu.stage2_tlb.align_faults            0                       # Number of TLB faults due to alignment restrictions
system.cpu0.istage2_mmu.stage2_tlb.prefetch_faults            0                       # Number of TLB faults due to prefetch
system.cpu0.istage2_mmu.stage2_tlb.domain_faults            0                       # Number of TLB faults due to domain restrictions
system.cpu0.istage2_mmu.stage2_tlb.perms_faults            0                       # Number of TLB faults due to permissions restrictions
system.cpu0.istage2_mmu.stage2_tlb.read_accesses            0                       # DTB read accesses
system.cpu0.istage2_mmu.stage2_tlb.write_accesses            0                       # DTB write accesses
system.cpu0.istage2_mmu.stage2_tlb.inst_accesses            0                       # ITB inst accesses
system.cpu0.istage2_mmu.stage2_tlb.hits             0                       # DTB hits
system.cpu0.istage2_mmu.stage2_tlb.misses            0                       # DTB misses
system.cpu0.istage2_mmu.stage2_tlb.accesses            0                       # DTB accesses
system.cpu0.itb.walker.pwrStateResidencyTicks::UNDEFINED  30452422000                       # Cumulative time (in ticks) in various power states
system.cpu0.itb.walker.walks                        0                       # Table walker walks requested
system.cpu0.itb.walker.walkRequestOrigin_Requested::Data            0                       # Table walker requests started/completed, data/inst
system.cpu0.itb.walker.walkRequestOrigin_Requested::Inst            0                       # Table walker requests started/completed, data/inst
system.cpu0.itb.walker.walkRequestOrigin_Requested::total            0                       # Table walker requests started/completed, data/inst
system.cpu0.itb.walker.walkRequestOrigin_Completed::Data            0                       # Table walker requests started/completed, data/inst
system.cpu0.itb.walker.walkRequestOrigin_Completed::Inst            0                       # Table walker requests started/completed, data/inst
system.cpu0.itb.walker.walkRequestOrigin_Completed::total            0                       # Table walker requests started/completed, data/inst
system.cpu0.itb.walker.walkRequestOrigin::total            0                       # Table walker requests started/completed, data/inst
system.cpu0.itb.inst_hits                           0                       # ITB inst hits
system.cpu0.itb.inst_misses                         0                       # ITB inst misses
system.cpu0.itb.read_hits                           0                       # DTB read hits
system.cpu0.itb.read_misses                         0                       # DTB read misses
system.cpu0.itb.write_hits                          0                       # DTB write hits
system.cpu0.itb.write_misses                        0                       # DTB write misses
system.cpu0.itb.flush_tlb                           0                       # Number of times complete TLB was flushed
system.cpu0.itb.flush_tlb_mva                       0                       # Number of times TLB was flushed by MVA
system.cpu0.itb.flush_tlb_mva_asid                  0                       # Number of times TLB was flushed by MVA & ASID
system.cpu0.itb.flush_tlb_asid                      0                       # Number of times TLB was flushed by ASID
system.cpu0.itb.flush_entries                       0                       # Number of entries that have been flushed from TLB
system.cpu0.itb.align_faults                        0                       # Number of TLB faults due to alignment restrictions
system.cpu0.itb.prefetch_faults                     0                       # Number of TLB faults due to prefetch
system.cpu0.itb.domain_faults                       0                       # Number of TLB faults due to domain restrictions
system.cpu0.itb.perms_faults                        0                       # Number of TLB faults due to permissions restrictions
system.cpu0.itb.read_accesses                       0                       # DTB read accesses
system.cpu0.itb.write_accesses                      0                       # DTB write accesses
system.cpu0.itb.inst_accesses                       0                       # ITB inst accesses
system.cpu0.itb.hits                                0                       # DTB hits
system.cpu0.itb.misses                              0                       # DTB misses
system.cpu0.itb.accesses                            0                       # DTB accesses
system.cpu0.workload.num_syscalls                  22                       # Number of system calls
system.cpu0.pwrStateResidencyTicks::ON    30452422000                       # Cumulative time (in ticks) in various power states
system.cpu0.numCycles                        30452423                       # number of cpu cycles simulated
system.cpu0.numWorkItemsStarted                     0                       # number of work items this cpu started
system.cpu0.numWorkItemsCompleted                   0                       # number of work items this cpu completed
system.cpu0.fetch.icacheStallCycles           1282451                       # Number of cycles fetch is stalled on an Icache miss
system.cpu0.fetch.Insts                      48265105                       # Number of instructions fetch has processed
system.cpu0.fetch.Branches                    9614759                       # Number of branches that fetch encountered
system.cpu0.fetch.predictedBranches           9173030                       # Number of branches that fetch has predicted taken
system.cpu0.fetch.Cycles                     29124051                       # Number of cycles fetch has run and was not squashing or blocked
system.cpu0.fetch.SquashCycles                  51355                       # Number of cycles fetch has spent squashing
system.cpu0.fetch.MiscStallCycles                   1                       # Number of cycles fetch has spent waiting on interrupts, or bad addresses, or out of MSHRs
system.cpu0.fetch.PendingTrapStallCycles          166                       # Number of stall cycles due to pending traps
system.cpu0.fetch.IcacheWaitRetryStallCycles            8                       # Number of stall cycles due to full MSHR
system.cpu0.fetch.CacheLines                   924099                       # Number of cache lines fetched
system.cpu0.fetch.IcacheSquashes                 8011                       # Number of outstanding Icache misses that were squashed
system.cpu0.fetch.rateDist::samples          30432354                       # Number of instructions fetched each cycle (Total)
system.cpu0.fetch.rateDist::mean             1.615742                       # Number of instructions fetched each cycle (Total)
system.cpu0.fetch.rateDist::stdev            0.568046                       # Number of instructions fetched each cycle (Total)
system.cpu0.fetch.rateDist::underflows              0      0.00%      0.00% # Number of instructions fetched each cycle (Total)
system.cpu0.fetch.rateDist::0                 1309687      4.30%      4.30% # Number of instructions fetched each cycle (Total)
system.cpu0.fetch.rateDist::1                 9074489     29.82%     34.12% # Number of instructions fetched each cycle (Total)
system.cpu0.fetch.rateDist::2                20048178     65.88%    100.00% # Number of instructions fetched each cycle (Total)
system.cpu0.fetch.rateDist::overflows               0      0.00%    100.00% # Number of instructions fetched each cycle (Total)
system.cpu0.fetch.rateDist::min_value               0                       # Number of instructions fetched each cycle (Total)
system.cpu0.fetch.rateDist::max_value               2                       # Number of instructions fetched each cycle (Total)
system.cpu0.fetch.rateDist::total            30432354                       # Number of instructions fetched each cycle (Total)
system.cpu0.fetch.branchRate                 0.315731                       # Number of branch fetches per cycle
system.cpu0.fetch.rate                       1.584935                       # Number of inst fetches per cycle
system.cpu0.decode.IdleCycles                 1202984                       # Number of cycles decode is idle
system.cpu0.decode.BlockedCycles               190278                       # Number of cycles decode is blocked
system.cpu0.decode.RunCycles                 28922308                       # Number of cycles decode is running
system.cpu0.decode.UnblockCycles                92182                       # Number of cycles decode is unblocking
system.cpu0.decode.SquashCycles                 24602                       # Number of cycles decode is squashing
system.cpu0.decode.BranchResolved              202662                       # Number of times decode resolved a branch
system.cpu0.decode.BranchMispred                 1098                       # Number of times decode detected a branch misprediction
system.cpu0.decode.DecodedInsts              49030917                       # Number of instructions handled by decode
system.cpu0.decode.SquashedInsts                 2014                       # Number of squashed instructions handled by decode
system.cpu0.rename.SquashCycles                 24602                       # Number of cycles rename is squashing
system.cpu0.rename.IdleCycles                 1252242                       # Number of cycles rename is idle
system.cpu0.rename.BlockCycles                  46093                       # Number of cycles rename is blocking
system.cpu0.rename.serializeStallCycles         70289                       # count of cycles rename stalled for serializing inst
system.cpu0.rename.RunCycles                 28961389                       # Number of cycles rename is running
system.cpu0.rename.UnblockCycles                77739                       # Number of cycles rename is unblocking
system.cpu0.rename.RenamedInsts              48996315                       # Number of instructions processed by rename
system.cpu0.rename.IQFullEvents                 44039                       # Number of times rename has blocked due to IQ full
system.cpu0.rename.SQFullEvents                   221                       # Number of times rename has blocked due to SQ full
system.cpu0.rename.RenamedOperands           49304161                       # Number of destination operands rename has renamed
system.cpu0.rename.RenameLookups            225133230                       # Number of register rename lookups that rename has made
system.cpu0.rename.int_rename_lookups        50302081                       # Number of integer rename lookups
system.cpu0.rename.fp_rename_lookups               16                       # Number of floating rename lookups
system.cpu0.rename.CommittedMaps             48694768                       # Number of HB maps that are committed
system.cpu0.rename.UndoneMaps                  609393                       # Number of HB maps that are undone due to squashing
system.cpu0.rename.serializingInsts              4902                       # count of serializing insts renamed
system.cpu0.rename.tempSerializingInsts          1960                       # count of temporary serializing insts renamed
system.cpu0.rename.skidInsts                   107239                       # count of insts added to the skid buffer
system.cpu0.memDep0.insertedLoads            18188613                       # Number of loads inserted to the mem dependence unit.
system.cpu0.memDep0.insertedStores            9413662                       # Number of stores inserted to the mem dependence unit.
system.cpu0.memDep0.conflictingLoads          8585063                       # Number of conflicting loads.
system.cpu0.memDep0.conflictingStores         8524465                       # Number of conflicting stores.
system.cpu0.iq.iqInstsAdded                  48924440                       # Number of instructions added to the IQ (excludes non-spec)
system.cpu0.iq.iqNonSpecInstsAdded               3863                       # Number of non-speculative instructions added to the IQ
system.cpu0.iq.iqInstsIssued                 48646402                       # Number of instructions issued
system.cpu0.iq.iqSquashedInstsIssued            57354                       # Number of squashed instructions issued
system.cpu0.iq.iqSquashedInstsExamined         431778                       # Number of squashed instructions iterated over during squash; mainly for profiling
system.cpu0.iq.iqSquashedOperandsExamined      1550228                       # Number of squashed operands that are examined and possibly removed from graph
system.cpu0.iq.iqSquashedNonSpecRemoved            14                       # Number of squashed non-spec instructions that were removed
system.cpu0.iq.issued_per_cycle::samples     30432354                       # Number of insts issued each cycle
system.cpu0.iq.issued_per_cycle::mean        1.598509                       # Number of insts issued each cycle
system.cpu0.iq.issued_per_cycle::stdev       0.528514                       # Number of insts issued each cycle
system.cpu0.iq.issued_per_cycle::underflows            0      0.00%      0.00% # Number of insts issued each cycle
system.cpu0.iq.issued_per_cycle::0             593897      1.95%      1.95% # Number of insts issued each cycle
system.cpu0.iq.issued_per_cycle::1           11030512     36.25%     38.20% # Number of insts issued each cycle
system.cpu0.iq.issued_per_cycle::2           18807945     61.80%    100.00% # Number of insts issued each cycle
system.cpu0.iq.issued_per_cycle::overflows            0      0.00%    100.00% # Number of insts issued each cycle
system.cpu0.iq.issued_per_cycle::min_value            0                       # Number of insts issued each cycle
system.cpu0.iq.issued_per_cycle::max_value            2                       # Number of insts issued each cycle
system.cpu0.iq.issued_per_cycle::total       30432354                       # Number of insts issued each cycle
system.cpu0.iq.fu_full::No_OpClass                  0      0.00%      0.00% # attempts to use FU when none available
system.cpu0.iq.fu_full::IntAlu                2575343     29.15%     29.15% # attempts to use FU when none available
system.cpu0.iq.fu_full::IntMult                     0      0.00%     29.15% # attempts to use FU when none available
system.cpu0.iq.fu_full::IntDiv                      0      0.00%     29.15% # attempts to use FU when none available
system.cpu0.iq.fu_full::FloatAdd                    0      0.00%     29.15% # attempts to use FU when none available
system.cpu0.iq.fu_full::FloatCmp                    0      0.00%     29.15% # attempts to use FU when none available
system.cpu0.iq.fu_full::FloatCvt                    0      0.00%     29.15% # attempts to use FU when none available
system.cpu0.iq.fu_full::FloatMult                   0      0.00%     29.15% # attempts to use FU when none available
system.cpu0.iq.fu_full::FloatMultAcc                0      0.00%     29.15% # attempts to use FU when none available
system.cpu0.iq.fu_full::FloatDiv                    0      0.00%     29.15% # attempts to use FU when none available
system.cpu0.iq.fu_full::FloatMisc                   0      0.00%     29.15% # attempts to use FU when none available
system.cpu0.iq.fu_full::FloatSqrt                   0      0.00%     29.15% # attempts to use FU when none available
system.cpu0.iq.fu_full::SimdAdd                     0      0.00%     29.15% # attempts to use FU when none available
system.cpu0.iq.fu_full::SimdAddAcc                  0      0.00%     29.15% # attempts to use FU when none available
system.cpu0.iq.fu_full::SimdAlu                     0      0.00%     29.15% # attempts to use FU when none available
system.cpu0.iq.fu_full::SimdCmp                     0      0.00%     29.15% # attempts to use FU when none available
system.cpu0.iq.fu_full::SimdCvt                     0      0.00%     29.15% # attempts to use FU when none available
system.cpu0.iq.fu_full::SimdMisc                    0      0.00%     29.15% # attempts to use FU when none available
system.cpu0.iq.fu_full::SimdMult                    0      0.00%     29.15% # attempts to use FU when none available
system.cpu0.iq.fu_full::SimdMultAcc                 0      0.00%     29.15% # attempts to use FU when none available
system.cpu0.iq.fu_full::SimdShift                   0      0.00%     29.15% # attempts to use FU when none available
system.cpu0.iq.fu_full::SimdShiftAcc                0      0.00%     29.15% # attempts to use FU when none available
system.cpu0.iq.fu_full::SimdSqrt                    0      0.00%     29.15% # attempts to use FU when none available
system.cpu0.iq.fu_full::SimdFloatAdd                0      0.00%     29.15% # attempts to use FU when none available
system.cpu0.iq.fu_full::SimdFloatAlu                0      0.00%     29.15% # attempts to use FU when none available
system.cpu0.iq.fu_full::SimdFloatCmp                0      0.00%     29.15% # attempts to use FU when none available
system.cpu0.iq.fu_full::SimdFloatCvt                0      0.00%     29.15% # attempts to use FU when none available
system.cpu0.iq.fu_full::SimdFloatDiv                0      0.00%     29.15% # attempts to use FU when none available
system.cpu0.iq.fu_full::SimdFloatMisc               0      0.00%     29.15% # attempts to use FU when none available
system.cpu0.iq.fu_full::SimdFloatMult               0      0.00%     29.15% # attempts to use FU when none available
system.cpu0.iq.fu_full::SimdFloatMultAcc            0      0.00%     29.15% # attempts to use FU when none available
system.cpu0.iq.fu_full::SimdFloatSqrt               0      0.00%     29.15% # attempts to use FU when none available
system.cpu0.iq.fu_full::MemRead               3159005     35.76%     64.91% # attempts to use FU when none available
system.cpu0.iq.fu_full::MemWrite              3099675     35.09%    100.00% # attempts to use FU when none available
system.cpu0.iq.fu_full::FloatMemRead                0      0.00%    100.00% # attempts to use FU when none available
system.cpu0.iq.fu_full::FloatMemWrite               0      0.00%    100.00% # attempts to use FU when none available
system.cpu0.iq.fu_full::IprAccess                   0      0.00%    100.00% # attempts to use FU when none available
system.cpu0.iq.fu_full::InstPrefetch                0      0.00%    100.00% # attempts to use FU when none available
system.cpu0.iq.FU_type_0::No_OpClass                0      0.00%      0.00% # Type of FU issued
system.cpu0.iq.FU_type_0::IntAlu             20999380     43.17%     43.17% # Type of FU issued
system.cpu0.iq.FU_type_0::IntMult               36396      0.07%     43.24% # Type of FU issued
system.cpu0.iq.FU_type_0::IntDiv                    0      0.00%     43.24% # Type of FU issued
system.cpu0.iq.FU_type_0::FloatAdd                  0      0.00%     43.24% # Type of FU issued
system.cpu0.iq.FU_type_0::FloatCmp                  0      0.00%     43.24% # Type of FU issued
system.cpu0.iq.FU_type_0::FloatCvt                  0      0.00%     43.24% # Type of FU issued
system.cpu0.iq.FU_type_0::FloatMult                 0      0.00%     43.24% # Type of FU issued
system.cpu0.iq.FU_type_0::FloatMultAcc              0      0.00%     43.24% # Type of FU issued
system.cpu0.iq.FU_type_0::FloatDiv                  0      0.00%     43.24% # Type of FU issued
system.cpu0.iq.FU_type_0::FloatMisc                 0      0.00%     43.24% # Type of FU issued
system.cpu0.iq.FU_type_0::FloatSqrt                 0      0.00%     43.24% # Type of FU issued
system.cpu0.iq.FU_type_0::SimdAdd                   0      0.00%     43.24% # Type of FU issued
system.cpu0.iq.FU_type_0::SimdAddAcc                0      0.00%     43.24% # Type of FU issued
system.cpu0.iq.FU_type_0::SimdAlu                   0      0.00%     43.24% # Type of FU issued
system.cpu0.iq.FU_type_0::SimdCmp                   0      0.00%     43.24% # Type of FU issued
system.cpu0.iq.FU_type_0::SimdCvt                   0      0.00%     43.24% # Type of FU issued
system.cpu0.iq.FU_type_0::SimdMisc                  0      0.00%     43.24% # Type of FU issued
system.cpu0.iq.FU_type_0::SimdMult                  0      0.00%     43.24% # Type of FU issued
system.cpu0.iq.FU_type_0::SimdMultAcc               0      0.00%     43.24% # Type of FU issued
system.cpu0.iq.FU_type_0::SimdShift                 0      0.00%     43.24% # Type of FU issued
system.cpu0.iq.FU_type_0::SimdShiftAcc              0      0.00%     43.24% # Type of FU issued
system.cpu0.iq.FU_type_0::SimdSqrt                  0      0.00%     43.24% # Type of FU issued
system.cpu0.iq.FU_type_0::SimdFloatAdd              0      0.00%     43.24% # Type of FU issued
system.cpu0.iq.FU_type_0::SimdFloatAlu              0      0.00%     43.24% # Type of FU issued
system.cpu0.iq.FU_type_0::SimdFloatCmp              0      0.00%     43.24% # Type of FU issued
system.cpu0.iq.FU_type_0::SimdFloatCvt              0      0.00%     43.24% # Type of FU issued
system.cpu0.iq.FU_type_0::SimdFloatDiv              0      0.00%     43.24% # Type of FU issued
system.cpu0.iq.FU_type_0::SimdFloatMisc          2700      0.01%     43.25% # Type of FU issued
system.cpu0.iq.FU_type_0::SimdFloatMult             0      0.00%     43.25% # Type of FU issued
system.cpu0.iq.FU_type_0::SimdFloatMultAcc            0      0.00%     43.25% # Type of FU issued
system.cpu0.iq.FU_type_0::SimdFloatSqrt             0      0.00%     43.25% # Type of FU issued
system.cpu0.iq.FU_type_0::MemRead            18210106     37.43%     80.68% # Type of FU issued
system.cpu0.iq.FU_type_0::MemWrite            9397804     19.32%    100.00% # Type of FU issued
system.cpu0.iq.FU_type_0::FloatMemRead              0      0.00%    100.00% # Type of FU issued
system.cpu0.iq.FU_type_0::FloatMemWrite            16      0.00%    100.00% # Type of FU issued
system.cpu0.iq.FU_type_0::IprAccess                 0      0.00%    100.00% # Type of FU issued
system.cpu0.iq.FU_type_0::InstPrefetch              0      0.00%    100.00% # Type of FU issued
system.cpu0.iq.FU_type_0::total              48646402                       # Type of FU issued
system.cpu0.iq.rate                          1.597456                       # Inst issue rate
system.cpu0.iq.fu_busy_cnt                    8834023                       # FU busy when requested
system.cpu0.iq.fu_busy_rate                  0.181597                       # FU busy rate (busy events/executed inst)
system.cpu0.iq.int_inst_queue_reads         136616503                       # Number of integer instruction queue reads
system.cpu0.iq.int_inst_queue_writes         49360318                       # Number of integer instruction queue writes
system.cpu0.iq.int_inst_queue_wakeup_accesses     48584992                       # Number of integer instruction queue wakeup accesses
system.cpu0.iq.fp_inst_queue_reads                 32                       # Number of floating instruction queue reads
system.cpu0.iq.fp_inst_queue_writes                16                       # Number of floating instruction queue writes
system.cpu0.iq.fp_inst_queue_wakeup_accesses           16                       # Number of floating instruction queue wakeup accesses
system.cpu0.iq.int_alu_accesses              57480409                       # Number of integer alu accesses
system.cpu0.iq.fp_alu_accesses                     16                       # Number of floating point alu accesses
system.cpu0.iew.lsq.thread0.forwLoads         8569328                       # Number of loads that had data forwarded from stores
system.cpu0.iew.lsq.thread0.invAddrLoads            0                       # Number of loads ignored due to an invalid address
system.cpu0.iew.lsq.thread0.squashedLoads        43071                       # Number of loads squashed
system.cpu0.iew.lsq.thread0.ignoredResponses           77                       # Number of memory responses ignored because the instruction is squashed
system.cpu0.iew.lsq.thread0.memOrderViolation          253                       # Number of memory ordering violations
system.cpu0.iew.lsq.thread0.squashedStores        37577                       # Number of stores squashed
system.cpu0.iew.lsq.thread0.invAddrSwpfs            0                       # Number of software prefetches ignored due to an invalid address
system.cpu0.iew.lsq.thread0.blockedLoads            0                       # Number of blocked loads due to partial load-store forwarding
system.cpu0.iew.lsq.thread0.rescheduledLoads        36974                       # Number of loads that were rescheduled
system.cpu0.iew.lsq.thread0.cacheBlocked            2                       # Number of times an access to memory failed due to the cache being blocked
system.cpu0.iew.iewIdleCycles                       0                       # Number of cycles IEW is idle
system.cpu0.iew.iewSquashCycles                 24602                       # Number of cycles IEW is squashing
system.cpu0.iew.iewBlockCycles                  40489                       # Number of cycles IEW is blocking
system.cpu0.iew.iewUnblockCycles                 4628                       # Number of cycles IEW is unblocking
system.cpu0.iew.iewDispatchedInsts           48928334                       # Number of instructions dispatched to IQ
system.cpu0.iew.iewDispSquashedInsts             9398                       # Number of squashed instructions skipped by dispatch
system.cpu0.iew.iewDispLoadInsts             18188613                       # Number of dispatched load instructions
system.cpu0.iew.iewDispStoreInsts             9413662                       # Number of dispatched store instructions
system.cpu0.iew.iewDispNonSpecInsts              1947                       # Number of dispatched non-speculative instructions
system.cpu0.iew.iewIQFullEvents                     3                       # Number of times the IQ has become full, causing a stall
system.cpu0.iew.iewLSQFullEvents                    0                       # Number of times the LSQ has become full, causing a stall
system.cpu0.iew.memOrderViolationEvents           253                       # Number of memory order violations
system.cpu0.iew.predictedTakenIncorrect         12891                       # Number of branches that were predicted taken incorrectly
system.cpu0.iew.predictedNotTakenIncorrect        11526                       # Number of branches that were predicted not taken incorrectly
system.cpu0.iew.branchMispredicts               24417                       # Number of branch mispredicts detected at execute
system.cpu0.iew.iewExecutedInsts             48627751                       # Number of executed instructions
system.cpu0.iew.iewExecLoadInsts             18204988                       # Number of load instructions executed
system.cpu0.iew.iewExecSquashedInsts            18651                       # Number of squashed instructions skipped in execute
system.cpu0.iew.exec_swp                            0                       # number of swp insts executed
system.cpu0.iew.exec_nop                           31                       # number of nop insts executed
system.cpu0.iew.exec_refs                    27598824                       # number of memory reference insts executed
system.cpu0.iew.exec_branches                 9528295                       # Number of branches executed
system.cpu0.iew.exec_stores                   9393836                       # Number of stores executed
system.cpu0.iew.exec_rate                    1.596843                       # Inst execution rate
system.cpu0.iew.wb_sent                      48585837                       # cumulative count of insts sent to commit
system.cpu0.iew.wb_count                     48585008                       # cumulative count of insts written-back
system.cpu0.iew.wb_producers                 29067584                       # num instructions producing a value
system.cpu0.iew.wb_consumers                 32127662                       # num instructions consuming a value
system.cpu0.iew.wb_rate                      1.595440                       # insts written-back per cycle
system.cpu0.iew.wb_fanout                    0.904753                       # average fanout of values written-back
system.cpu0.commit.commitSquashedInsts         431787                       # The number of squashed insts skipped by commit
system.cpu0.commit.commitNonSpecStalls           3849                       # The number of times commit has been forced to stall to communicate backwards
system.cpu0.commit.branchMispredicts            24352                       # The number of times a branch was mispredicted
system.cpu0.commit.committed_per_cycle::samples     30367304                       # Number of insts commited each cycle
system.cpu0.commit.committed_per_cycle::mean     1.596998                       # Number of insts commited each cycle
system.cpu0.commit.committed_per_cycle::stdev     1.319954                       # Number of insts commited each cycle
system.cpu0.commit.committed_per_cycle::underflows            0      0.00%      0.00% # Number of insts commited each cycle
system.cpu0.commit.committed_per_cycle::0      3830832     12.61%     12.61% # Number of insts commited each cycle
system.cpu0.commit.committed_per_cycle::1     16858718     55.52%     68.13% # Number of insts commited each cycle
system.cpu0.commit.committed_per_cycle::2      3562710     11.73%     79.86% # Number of insts commited each cycle
system.cpu0.commit.committed_per_cycle::3       214830      0.71%     80.57% # Number of insts commited each cycle
system.cpu0.commit.committed_per_cycle::4      5782120     19.04%     99.61% # Number of insts commited each cycle
system.cpu0.commit.committed_per_cycle::5        46855      0.15%     99.77% # Number of insts commited each cycle
system.cpu0.commit.committed_per_cycle::6        20561      0.07%     99.83% # Number of insts commited each cycle
system.cpu0.commit.committed_per_cycle::7        23648      0.08%     99.91% # Number of insts commited each cycle
system.cpu0.commit.committed_per_cycle::8        27030      0.09%    100.00% # Number of insts commited each cycle
system.cpu0.commit.committed_per_cycle::overflows            0      0.00%    100.00% # Number of insts commited each cycle
system.cpu0.commit.committed_per_cycle::min_value            0                       # Number of insts commited each cycle
system.cpu0.commit.committed_per_cycle::max_value            8                       # Number of insts commited each cycle
system.cpu0.commit.committed_per_cycle::total     30367304                       # Number of insts commited each cycle
system.cpu0.commit.committedInsts            47658284                       # Number of instructions committed
system.cpu0.commit.committedOps              48496525                       # Number of ops (including micro ops) committed
system.cpu0.commit.swp_count                        0                       # Number of s/w prefetches committed
system.cpu0.commit.refs                      27521627                       # Number of memory references committed
system.cpu0.commit.loads                     18145542                       # Number of loads committed
system.cpu0.commit.membars                       1916                       # Number of memory barriers committed
system.cpu0.commit.branches                   9518579                       # Number of branches committed
system.cpu0.commit.fp_insts                        16                       # Number of committed floating point instructions.
system.cpu0.commit.int_insts                 39306311                       # Number of committed integer instructions.
system.cpu0.commit.function_calls              129513                       # Number of function calls committed.
system.cpu0.commit.op_class_0::No_OpClass            0      0.00%      0.00% # Class of committed instruction
system.cpu0.commit.op_class_0::IntAlu        20935891     43.17%     43.17% # Class of committed instruction
system.cpu0.commit.op_class_0::IntMult          36307      0.07%     43.24% # Class of committed instruction
system.cpu0.commit.op_class_0::IntDiv               0      0.00%     43.24% # Class of committed instruction
system.cpu0.commit.op_class_0::FloatAdd             0      0.00%     43.24% # Class of committed instruction
system.cpu0.commit.op_class_0::FloatCmp             0      0.00%     43.24% # Class of committed instruction
system.cpu0.commit.op_class_0::FloatCvt             0      0.00%     43.24% # Class of committed instruction
system.cpu0.commit.op_class_0::FloatMult            0      0.00%     43.24% # Class of committed instruction
system.cpu0.commit.op_class_0::FloatMultAcc            0      0.00%     43.24% # Class of committed instruction
system.cpu0.commit.op_class_0::FloatDiv             0      0.00%     43.24% # Class of committed instruction
system.cpu0.commit.op_class_0::FloatMisc            0      0.00%     43.24% # Class of committed instruction
system.cpu0.commit.op_class_0::FloatSqrt            0      0.00%     43.24% # Class of committed instruction
system.cpu0.commit.op_class_0::SimdAdd              0      0.00%     43.24% # Class of committed instruction
system.cpu0.commit.op_class_0::SimdAddAcc            0      0.00%     43.24% # Class of committed instruction
system.cpu0.commit.op_class_0::SimdAlu              0      0.00%     43.24% # Class of committed instruction
system.cpu0.commit.op_class_0::SimdCmp              0      0.00%     43.24% # Class of committed instruction
system.cpu0.commit.op_class_0::SimdCvt              0      0.00%     43.24% # Class of committed instruction
system.cpu0.commit.op_class_0::SimdMisc             0      0.00%     43.24% # Class of committed instruction
system.cpu0.commit.op_class_0::SimdMult             0      0.00%     43.24% # Class of committed instruction
system.cpu0.commit.op_class_0::SimdMultAcc            0      0.00%     43.24% # Class of committed instruction
system.cpu0.commit.op_class_0::SimdShift            0      0.00%     43.24% # Class of committed instruction
system.cpu0.commit.op_class_0::SimdShiftAcc            0      0.00%     43.24% # Class of committed instruction
system.cpu0.commit.op_class_0::SimdSqrt             0      0.00%     43.24% # Class of committed instruction
system.cpu0.commit.op_class_0::SimdFloatAdd            0      0.00%     43.24% # Class of committed instruction
system.cpu0.commit.op_class_0::SimdFloatAlu            0      0.00%     43.24% # Class of committed instruction
system.cpu0.commit.op_class_0::SimdFloatCmp            0      0.00%     43.24% # Class of committed instruction
system.cpu0.commit.op_class_0::SimdFloatCvt            0      0.00%     43.24% # Class of committed instruction
system.cpu0.commit.op_class_0::SimdFloatDiv            0      0.00%     43.24% # Class of committed instruction
system.cpu0.commit.op_class_0::SimdFloatMisc         2700      0.01%     43.25% # Class of committed instruction
system.cpu0.commit.op_class_0::SimdFloatMult            0      0.00%     43.25% # Class of committed instruction
system.cpu0.commit.op_class_0::SimdFloatMultAcc            0      0.00%     43.25% # Class of committed instruction
system.cpu0.commit.op_class_0::SimdFloatSqrt            0      0.00%     43.25% # Class of committed instruction
system.cpu0.commit.op_class_0::MemRead       18145542     37.42%     80.67% # Class of committed instruction
system.cpu0.commit.op_class_0::MemWrite       9376069     19.33%    100.00% # Class of committed instruction
system.cpu0.commit.op_class_0::FloatMemRead            0      0.00%    100.00% # Class of committed instruction
system.cpu0.commit.op_class_0::FloatMemWrite           16      0.00%    100.00% # Class of committed instruction
system.cpu0.commit.op_class_0::IprAccess            0      0.00%    100.00% # Class of committed instruction
system.cpu0.commit.op_class_0::InstPrefetch            0      0.00%    100.00% # Class of committed instruction
system.cpu0.commit.op_class_0::total         48496525                       # Class of committed instruction
system.cpu0.commit.bw_lim_events                27030                       # number cycles where commit BW limit reached
system.cpu0.rob.rob_reads                    79268339                       # The number of ROB reads
system.cpu0.rob.rob_writes                   97921681                       # The number of ROB writes
system.cpu0.timesIdled                            522                       # Number of times that the entire CPU went into an idle state and unscheduled itself
system.cpu0.idleCycles                          20069                       # Total number of cycles that the CPU has spent unscheduled due to idling
system.cpu0.committedInsts                   47658284                       # Number of Instructions Simulated
system.cpu0.committedOps                     48496525                       # Number of Ops (including micro ops) Simulated
system.cpu0.cpi                              0.638974                       # CPI: Cycles Per Instruction
system.cpu0.cpi_total                        0.638974                       # CPI: Total CPI of All Threads
system.cpu0.ipc                              1.565008                       # IPC: Instructions Per Cycle
system.cpu0.ipc_total                        1.565008                       # IPC: Total IPC of All Threads
system.cpu0.int_regfile_reads                49466152                       # number of integer regfile reads
system.cpu0.int_regfile_writes               20761991                       # number of integer regfile writes
system.cpu0.fp_regfile_reads                      336                       # number of floating regfile reads
system.cpu0.cc_regfile_reads                200298844                       # number of cc regfile reads
system.cpu0.cc_regfile_writes                27913439                       # number of cc regfile writes
system.cpu0.misc_regfile_reads               27625356                       # number of misc regfile reads
system.cpu0.misc_regfile_writes                  3831                       # number of misc regfile writes
system.cpu0.dcache.tags.pwrStateResidencyTicks::UNDEFINED  30452422000                       # Cumulative time (in ticks) in various power states
system.cpu0.dcache.tags.replacements              374                       # number of replacements
system.cpu0.dcache.tags.tagsinuse          182.266577                       # Cycle average of tags in use
system.cpu0.dcache.tags.total_refs           18903430                       # Total number of references to valid blocks.
system.cpu0.dcache.tags.sampled_refs              792                       # Sample count of references to valid blocks.
system.cpu0.dcache.tags.avg_refs         23867.967172                       # Average number of references to valid blocks.
system.cpu0.dcache.tags.warmup_cycle                0                       # Cycle when the warmup percentage was hit.
system.cpu0.dcache.tags.occ_blocks::cpu0.data   182.266577                       # Average occupied blocks per requestor
system.cpu0.dcache.tags.occ_percent::cpu0.data     0.355989                       # Average percentage of cache occupancy
system.cpu0.dcache.tags.occ_percent::total     0.355989                       # Average percentage of cache occupancy
system.cpu0.dcache.tags.occ_task_id_blocks::1024          418                       # Occupied blocks per task id
system.cpu0.dcache.tags.age_task_id_blocks_1024::0           45                       # Occupied blocks per task id
system.cpu0.dcache.tags.age_task_id_blocks_1024::1            7                       # Occupied blocks per task id
system.cpu0.dcache.tags.age_task_id_blocks_1024::2           37                       # Occupied blocks per task id
system.cpu0.dcache.tags.age_task_id_blocks_1024::3          250                       # Occupied blocks per task id
system.cpu0.dcache.tags.age_task_id_blocks_1024::4           79                       # Occupied blocks per task id
system.cpu0.dcache.tags.occ_task_id_percent::1024     0.816406                       # Percentage of cache occupancy per task id
system.cpu0.dcache.tags.tag_accesses         37810747                       # Number of tag accesses
system.cpu0.dcache.tags.data_accesses        37810747                       # Number of data accesses
system.cpu0.dcache.pwrStateResidencyTicks::UNDEFINED  30452422000                       # Cumulative time (in ticks) in various power states
system.cpu0.dcache.ReadReq_hits::cpu0.data      9557512                       # number of ReadReq hits
system.cpu0.dcache.ReadReq_hits::total        9557512                       # number of ReadReq hits
system.cpu0.dcache.WriteReq_hits::cpu0.data      9342079                       # number of WriteReq hits
system.cpu0.dcache.WriteReq_hits::total       9342079                       # number of WriteReq hits
system.cpu0.dcache.LoadLockedReq_hits::cpu0.data         1913                       # number of LoadLockedReq hits
system.cpu0.dcache.LoadLockedReq_hits::total         1913                       # number of LoadLockedReq hits
system.cpu0.dcache.StoreCondReq_hits::cpu0.data         1915                       # number of StoreCondReq hits
system.cpu0.dcache.StoreCondReq_hits::total         1915                       # number of StoreCondReq hits
system.cpu0.dcache.demand_hits::cpu0.data     18899591                       # number of demand (read+write) hits
system.cpu0.dcache.demand_hits::total        18899591                       # number of demand (read+write) hits
system.cpu0.dcache.overall_hits::cpu0.data     18899591                       # number of overall hits
system.cpu0.dcache.overall_hits::total       18899591                       # number of overall hits
system.cpu0.dcache.ReadReq_misses::cpu0.data          851                       # number of ReadReq misses
system.cpu0.dcache.ReadReq_misses::total          851                       # number of ReadReq misses
system.cpu0.dcache.WriteReq_misses::cpu0.data          702                       # number of WriteReq misses
system.cpu0.dcache.WriteReq_misses::total          702                       # number of WriteReq misses
system.cpu0.dcache.LoadLockedReq_misses::cpu0.data            2                       # number of LoadLockedReq misses
system.cpu0.dcache.LoadLockedReq_misses::total            2                       # number of LoadLockedReq misses
system.cpu0.dcache.demand_misses::cpu0.data         1553                       # number of demand (read+write) misses
system.cpu0.dcache.demand_misses::total          1553                       # number of demand (read+write) misses
system.cpu0.dcache.overall_misses::cpu0.data         1553                       # number of overall misses
system.cpu0.dcache.overall_misses::total         1553                       # number of overall misses
system.cpu0.dcache.ReadReq_miss_latency::cpu0.data     23044000                       # number of ReadReq miss cycles
system.cpu0.dcache.ReadReq_miss_latency::total     23044000                       # number of ReadReq miss cycles
system.cpu0.dcache.WriteReq_miss_latency::cpu0.data     39851000                       # number of WriteReq miss cycles
system.cpu0.dcache.WriteReq_miss_latency::total     39851000                       # number of WriteReq miss cycles
system.cpu0.dcache.LoadLockedReq_miss_latency::cpu0.data        11000                       # number of LoadLockedReq miss cycles
system.cpu0.dcache.LoadLockedReq_miss_latency::total        11000                       # number of LoadLockedReq miss cycles
system.cpu0.dcache.demand_miss_latency::cpu0.data     62895000                       # number of demand (read+write) miss cycles
system.cpu0.dcache.demand_miss_latency::total     62895000                       # number of demand (read+write) miss cycles
system.cpu0.dcache.overall_miss_latency::cpu0.data     62895000                       # number of overall miss cycles
system.cpu0.dcache.overall_miss_latency::total     62895000                       # number of overall miss cycles
system.cpu0.dcache.ReadReq_accesses::cpu0.data      9558363                       # number of ReadReq accesses(hits+misses)
system.cpu0.dcache.ReadReq_accesses::total      9558363                       # number of ReadReq accesses(hits+misses)
system.cpu0.dcache.WriteReq_accesses::cpu0.data      9342781                       # number of WriteReq accesses(hits+misses)
system.cpu0.dcache.WriteReq_accesses::total      9342781                       # number of WriteReq accesses(hits+misses)
system.cpu0.dcache.LoadLockedReq_accesses::cpu0.data         1915                       # number of LoadLockedReq accesses(hits+misses)
system.cpu0.dcache.LoadLockedReq_accesses::total         1915                       # number of LoadLockedReq accesses(hits+misses)
system.cpu0.dcache.StoreCondReq_accesses::cpu0.data         1915                       # number of StoreCondReq accesses(hits+misses)
system.cpu0.dcache.StoreCondReq_accesses::total         1915                       # number of StoreCondReq accesses(hits+misses)
system.cpu0.dcache.demand_accesses::cpu0.data     18901144                       # number of demand (read+write) accesses
system.cpu0.dcache.demand_accesses::total     18901144                       # number of demand (read+write) accesses
system.cpu0.dcache.overall_accesses::cpu0.data     18901144                       # number of overall (read+write) accesses
system.cpu0.dcache.overall_accesses::total     18901144                       # number of overall (read+write) accesses
system.cpu0.dcache.ReadReq_miss_rate::cpu0.data     0.000089                       # miss rate for ReadReq accesses
system.cpu0.dcache.ReadReq_miss_rate::total     0.000089                       # miss rate for ReadReq accesses
system.cpu0.dcache.WriteReq_miss_rate::cpu0.data     0.000075                       # miss rate for WriteReq accesses
system.cpu0.dcache.WriteReq_miss_rate::total     0.000075                       # miss rate for WriteReq accesses
system.cpu0.dcache.LoadLockedReq_miss_rate::cpu0.data     0.001044                       # miss rate for LoadLockedReq accesses
system.cpu0.dcache.LoadLockedReq_miss_rate::total     0.001044                       # miss rate for LoadLockedReq accesses
system.cpu0.dcache.demand_miss_rate::cpu0.data     0.000082                       # miss rate for demand accesses
system.cpu0.dcache.demand_miss_rate::total     0.000082                       # miss rate for demand accesses
system.cpu0.dcache.overall_miss_rate::cpu0.data     0.000082                       # miss rate for overall accesses
system.cpu0.dcache.overall_miss_rate::total     0.000082                       # miss rate for overall accesses
system.cpu0.dcache.ReadReq_avg_miss_latency::cpu0.data 27078.730905                       # average ReadReq miss latency
system.cpu0.dcache.ReadReq_avg_miss_latency::total 27078.730905                       # average ReadReq miss latency
system.cpu0.dcache.WriteReq_avg_miss_latency::cpu0.data 56767.806268                       # average WriteReq miss latency
system.cpu0.dcache.WriteReq_avg_miss_latency::total 56767.806268                       # average WriteReq miss latency
system.cpu0.dcache.LoadLockedReq_avg_miss_latency::cpu0.data         5500                       # average LoadLockedReq miss latency
system.cpu0.dcache.LoadLockedReq_avg_miss_latency::total         5500                       # average LoadLockedReq miss latency
system.cpu0.dcache.demand_avg_miss_latency::cpu0.data 40499.034127                       # average overall miss latency
system.cpu0.dcache.demand_avg_miss_latency::total 40499.034127                       # average overall miss latency
system.cpu0.dcache.overall_avg_miss_latency::cpu0.data 40499.034127                       # average overall miss latency
system.cpu0.dcache.overall_avg_miss_latency::total 40499.034127                       # average overall miss latency
system.cpu0.dcache.blocked_cycles::no_mshrs           81                       # number of cycles access was blocked
system.cpu0.dcache.blocked_cycles::no_targets            0                       # number of cycles access was blocked
system.cpu0.dcache.blocked::no_mshrs                2                       # number of cycles access was blocked
system.cpu0.dcache.blocked::no_targets              0                       # number of cycles access was blocked
system.cpu0.dcache.avg_blocked_cycles::no_mshrs    40.500000                       # average number of cycles each access was blocked
system.cpu0.dcache.avg_blocked_cycles::no_targets          nan                       # average number of cycles each access was blocked
system.cpu0.dcache.writebacks::writebacks           86                       # number of writebacks
system.cpu0.dcache.writebacks::total               86                       # number of writebacks
system.cpu0.dcache.ReadReq_mshr_hits::cpu0.data          270                       # number of ReadReq MSHR hits
system.cpu0.dcache.ReadReq_mshr_hits::total          270                       # number of ReadReq MSHR hits
system.cpu0.dcache.WriteReq_mshr_hits::cpu0.data          479                       # number of WriteReq MSHR hits
system.cpu0.dcache.WriteReq_mshr_hits::total          479                       # number of WriteReq MSHR hits
system.cpu0.dcache.LoadLockedReq_mshr_hits::cpu0.data            2                       # number of LoadLockedReq MSHR hits
system.cpu0.dcache.LoadLockedReq_mshr_hits::total            2                       # number of LoadLockedReq MSHR hits
system.cpu0.dcache.demand_mshr_hits::cpu0.data          749                       # number of demand (read+write) MSHR hits
system.cpu0.dcache.demand_mshr_hits::total          749                       # number of demand (read+write) MSHR hits
system.cpu0.dcache.overall_mshr_hits::cpu0.data          749                       # number of overall MSHR hits
system.cpu0.dcache.overall_mshr_hits::total          749                       # number of overall MSHR hits
system.cpu0.dcache.ReadReq_mshr_misses::cpu0.data          581                       # number of ReadReq MSHR misses
system.cpu0.dcache.ReadReq_mshr_misses::total          581                       # number of ReadReq MSHR misses
system.cpu0.dcache.WriteReq_mshr_misses::cpu0.data          223                       # number of WriteReq MSHR misses
system.cpu0.dcache.WriteReq_mshr_misses::total          223                       # number of WriteReq MSHR misses
system.cpu0.dcache.demand_mshr_misses::cpu0.data          804                       # number of demand (read+write) MSHR misses
system.cpu0.dcache.demand_mshr_misses::total          804                       # number of demand (read+write) MSHR misses
system.cpu0.dcache.overall_mshr_misses::cpu0.data          804                       # number of overall MSHR misses
system.cpu0.dcache.overall_mshr_misses::total          804                       # number of overall MSHR misses
system.cpu0.dcache.ReadReq_mshr_miss_latency::cpu0.data     13900000                       # number of ReadReq MSHR miss cycles
system.cpu0.dcache.ReadReq_mshr_miss_latency::total     13900000                       # number of ReadReq MSHR miss cycles
system.cpu0.dcache.WriteReq_mshr_miss_latency::cpu0.data     13619500                       # number of WriteReq MSHR miss cycles
system.cpu0.dcache.WriteReq_mshr_miss_latency::total     13619500                       # number of WriteReq MSHR miss cycles
system.cpu0.dcache.demand_mshr_miss_latency::cpu0.data     27519500                       # number of demand (read+write) MSHR miss cycles
system.cpu0.dcache.demand_mshr_miss_latency::total     27519500                       # number of demand (read+write) MSHR miss cycles
system.cpu0.dcache.overall_mshr_miss_latency::cpu0.data     27519500                       # number of overall MSHR miss cycles
system.cpu0.dcache.overall_mshr_miss_latency::total     27519500                       # number of overall MSHR miss cycles
system.cpu0.dcache.ReadReq_mshr_miss_rate::cpu0.data     0.000061                       # mshr miss rate for ReadReq accesses
system.cpu0.dcache.ReadReq_mshr_miss_rate::total     0.000061                       # mshr miss rate for ReadReq accesses
system.cpu0.dcache.WriteReq_mshr_miss_rate::cpu0.data     0.000024                       # mshr miss rate for WriteReq accesses
system.cpu0.dcache.WriteReq_mshr_miss_rate::total     0.000024                       # mshr miss rate for WriteReq accesses
system.cpu0.dcache.demand_mshr_miss_rate::cpu0.data     0.000043                       # mshr miss rate for demand accesses
system.cpu0.dcache.demand_mshr_miss_rate::total     0.000043                       # mshr miss rate for demand accesses
system.cpu0.dcache.overall_mshr_miss_rate::cpu0.data     0.000043                       # mshr miss rate for overall accesses
system.cpu0.dcache.overall_mshr_miss_rate::total     0.000043                       # mshr miss rate for overall accesses
system.cpu0.dcache.ReadReq_avg_mshr_miss_latency::cpu0.data 23924.268503                       # average ReadReq mshr miss latency
system.cpu0.dcache.ReadReq_avg_mshr_miss_latency::total 23924.268503                       # average ReadReq mshr miss latency
system.cpu0.dcache.WriteReq_avg_mshr_miss_latency::cpu0.data 61073.991031                       # average WriteReq mshr miss latency
system.cpu0.dcache.WriteReq_avg_mshr_miss_latency::total 61073.991031                       # average WriteReq mshr miss latency
system.cpu0.dcache.demand_avg_mshr_miss_latency::cpu0.data 34228.233831                       # average overall mshr miss latency
system.cpu0.dcache.demand_avg_mshr_miss_latency::total 34228.233831                       # average overall mshr miss latency
system.cpu0.dcache.overall_avg_mshr_miss_latency::cpu0.data 34228.233831                       # average overall mshr miss latency
system.cpu0.dcache.overall_avg_mshr_miss_latency::total 34228.233831                       # average overall mshr miss latency
system.cpu0.icache.tags.pwrStateResidencyTicks::UNDEFINED  30452422000                       # Cumulative time (in ticks) in various power states
system.cpu0.icache.tags.replacements            26226                       # number of replacements
system.cpu0.icache.tags.tagsinuse          300.009995                       # Cycle average of tags in use
system.cpu0.icache.tags.total_refs             896275                       # Total number of references to valid blocks.
system.cpu0.icache.tags.sampled_refs            26692                       # Sample count of references to valid blocks.
system.cpu0.icache.tags.avg_refs            33.578413                       # Average number of references to valid blocks.
system.cpu0.icache.tags.warmup_cycle                0                       # Cycle when the warmup percentage was hit.
system.cpu0.icache.tags.occ_blocks::cpu0.inst   300.009995                       # Average occupied blocks per requestor
system.cpu0.icache.tags.occ_percent::cpu0.inst     0.585957                       # Average percentage of cache occupancy
system.cpu0.icache.tags.occ_percent::total     0.585957                       # Average percentage of cache occupancy
system.cpu0.icache.tags.occ_task_id_blocks::1024          466                       # Occupied blocks per task id
system.cpu0.icache.tags.age_task_id_blocks_1024::0          118                       # Occupied blocks per task id
system.cpu0.icache.tags.age_task_id_blocks_1024::1            5                       # Occupied blocks per task id
system.cpu0.icache.tags.age_task_id_blocks_1024::2           19                       # Occupied blocks per task id
system.cpu0.icache.tags.age_task_id_blocks_1024::3          218                       # Occupied blocks per task id
system.cpu0.icache.tags.age_task_id_blocks_1024::4          106                       # Occupied blocks per task id
system.cpu0.icache.tags.occ_task_id_percent::1024     0.910156                       # Percentage of cache occupancy per task id
system.cpu0.icache.tags.tag_accesses          1874890                       # Number of tag accesses
system.cpu0.icache.tags.data_accesses         1874890                       # Number of data accesses
system.cpu0.icache.pwrStateResidencyTicks::UNDEFINED  30452422000                       # Cumulative time (in ticks) in various power states
system.cpu0.icache.ReadReq_hits::cpu0.inst       896275                       # number of ReadReq hits
system.cpu0.icache.ReadReq_hits::total         896275                       # number of ReadReq hits
system.cpu0.icache.demand_hits::cpu0.inst       896275                       # number of demand (read+write) hits
system.cpu0.icache.demand_hits::total          896275                       # number of demand (read+write) hits
system.cpu0.icache.overall_hits::cpu0.inst       896275                       # number of overall hits
system.cpu0.icache.overall_hits::total         896275                       # number of overall hits
system.cpu0.icache.ReadReq_misses::cpu0.inst        27824                       # number of ReadReq misses
system.cpu0.icache.ReadReq_misses::total        27824                       # number of ReadReq misses
system.cpu0.icache.demand_misses::cpu0.inst        27824                       # number of demand (read+write) misses
system.cpu0.icache.demand_misses::total         27824                       # number of demand (read+write) misses
system.cpu0.icache.overall_misses::cpu0.inst        27824                       # number of overall misses
system.cpu0.icache.overall_misses::total        27824                       # number of overall misses
system.cpu0.icache.ReadReq_miss_latency::cpu0.inst    453360499                       # number of ReadReq miss cycles
system.cpu0.icache.ReadReq_miss_latency::total    453360499                       # number of ReadReq miss cycles
system.cpu0.icache.demand_miss_latency::cpu0.inst    453360499                       # number of demand (read+write) miss cycles
system.cpu0.icache.demand_miss_latency::total    453360499                       # number of demand (read+write) miss cycles
system.cpu0.icache.overall_miss_latency::cpu0.inst    453360499                       # number of overall miss cycles
system.cpu0.icache.overall_miss_latency::total    453360499                       # number of overall miss cycles
system.cpu0.icache.ReadReq_accesses::cpu0.inst       924099                       # number of ReadReq accesses(hits+misses)
system.cpu0.icache.ReadReq_accesses::total       924099                       # number of ReadReq accesses(hits+misses)
system.cpu0.icache.demand_accesses::cpu0.inst       924099                       # number of demand (read+write) accesses
system.cpu0.icache.demand_accesses::total       924099                       # number of demand (read+write) accesses
system.cpu0.icache.overall_accesses::cpu0.inst       924099                       # number of overall (read+write) accesses
system.cpu0.icache.overall_accesses::total       924099                       # number of overall (read+write) accesses
system.cpu0.icache.ReadReq_miss_rate::cpu0.inst     0.030109                       # miss rate for ReadReq accesses
system.cpu0.icache.ReadReq_miss_rate::total     0.030109                       # miss rate for ReadReq accesses
system.cpu0.icache.demand_miss_rate::cpu0.inst     0.030109                       # miss rate for demand accesses
system.cpu0.icache.demand_miss_rate::total     0.030109                       # miss rate for demand accesses
system.cpu0.icache.overall_miss_rate::cpu0.inst     0.030109                       # miss rate for overall accesses
system.cpu0.icache.overall_miss_rate::total     0.030109                       # miss rate for overall accesses
system.cpu0.icache.ReadReq_avg_miss_latency::cpu0.inst 16293.864973                       # average ReadReq miss latency
system.cpu0.icache.ReadReq_avg_miss_latency::total 16293.864973                       # average ReadReq miss latency
system.cpu0.icache.demand_avg_miss_latency::cpu0.inst 16293.864973                       # average overall miss latency
system.cpu0.icache.demand_avg_miss_latency::total 16293.864973                       # average overall miss latency
system.cpu0.icache.overall_avg_miss_latency::cpu0.inst 16293.864973                       # average overall miss latency
system.cpu0.icache.overall_avg_miss_latency::total 16293.864973                       # average overall miss latency
system.cpu0.icache.blocked_cycles::no_mshrs           16                       # number of cycles access was blocked
system.cpu0.icache.blocked_cycles::no_targets            0                       # number of cycles access was blocked
system.cpu0.icache.blocked::no_mshrs                2                       # number of cycles access was blocked
system.cpu0.icache.blocked::no_targets              0                       # number of cycles access was blocked
system.cpu0.icache.avg_blocked_cycles::no_mshrs            8                       # average number of cycles each access was blocked
system.cpu0.icache.avg_blocked_cycles::no_targets          nan                       # average number of cycles each access was blocked
system.cpu0.icache.writebacks::writebacks        26226                       # number of writebacks
system.cpu0.icache.writebacks::total            26226                       # number of writebacks
system.cpu0.icache.ReadReq_mshr_hits::cpu0.inst         1131                       # number of ReadReq MSHR hits
system.cpu0.icache.ReadReq_mshr_hits::total         1131                       # number of ReadReq MSHR hits
system.cpu0.icache.demand_mshr_hits::cpu0.inst         1131                       # number of demand (read+write) MSHR hits
system.cpu0.icache.demand_mshr_hits::total         1131                       # number of demand (read+write) MSHR hits
[...]
system.l2.ReadSharedReq_mshr_miss_latency::total      9579000                       # number of ReadSharedReq MSHR miss cycles
system.l2.demand_mshr_miss_latency::cpu0.inst     35408000                       # number of demand (read+write) MSHR miss cycles
system.l2.demand_mshr_miss_latency::cpu0.data     18451500                       # number of demand (read+write) MSHR miss cycles
system.l2.demand_mshr_miss_latency::cpu1.inst      3883000                       # number of demand (read+write) MSHR miss cycles
system.l2.demand_mshr_miss_latency::cpu1.data      5911000                       # number of demand (read+write) MSHR miss cycles
system.l2.demand_mshr_miss_latency::cpu2.inst      3624500                       # number of demand (read+write) MSHR miss cycles
system.l2.demand_mshr_miss_latency::cpu2.data      7121500                       # number of demand (read+write) MSHR miss cycles
system.l2.demand_mshr_miss_latency::total     74399500                       # number of demand (read+write) MSHR miss cycles
system.l2.overall_mshr_miss_latency::cpu0.inst     35408000                       # number of overall MSHR miss cycles
system.l2.overall_mshr_miss_latency::cpu0.data     18451500                       # number of overall MSHR miss cycles
system.l2.overall_mshr_miss_latency::cpu1.inst      3883000                       # number of overall MSHR miss cycles
system.l2.overall_mshr_miss_latency::cpu1.data      5911000                       # number of overall MSHR miss cycles
system.l2.overall_mshr_miss_latency::cpu2.inst      3624500                       # number of overall MSHR miss cycles
system.l2.overall_mshr_miss_latency::cpu2.data      7121500                       # number of overall MSHR miss cycles
system.l2.overall_mshr_miss_latency::total     74399500                       # number of overall MSHR miss cycles
system.l2.ReadExReq_mshr_miss_rate::cpu0.data     0.968037                       # mshr miss rate for ReadExReq accesses
system.l2.ReadExReq_mshr_miss_rate::cpu1.data     0.784615                       # mshr miss rate for ReadExReq accesses
system.l2.ReadExReq_mshr_miss_rate::cpu2.data            1                       # mshr miss rate for ReadExReq accesses
system.l2.ReadExReq_mshr_miss_rate::total     0.924242                       # mshr miss rate for ReadExReq accesses
system.l2.ReadCleanReq_mshr_miss_rate::cpu0.inst     0.025849                       # mshr miss rate for ReadCleanReq accesses
system.l2.ReadCleanReq_mshr_miss_rate::cpu1.inst     0.001894                       # mshr miss rate for ReadCleanReq accesses
system.l2.ReadCleanReq_mshr_miss_rate::cpu2.inst     0.001358                       # mshr miss rate for ReadCleanReq accesses
system.l2.ReadCleanReq_mshr_miss_rate::total     0.007028                       # mshr miss rate for ReadCleanReq accesses
system.l2.ReadSharedReq_mshr_miss_rate::cpu0.data     0.377261                       # mshr miss rate for ReadSharedReq accesses
system.l2.ReadSharedReq_mshr_miss_rate::cpu1.data     0.089655                       # mshr miss rate for ReadSharedReq accesses
system.l2.ReadSharedReq_mshr_miss_rate::cpu2.data     0.077612                       # mshr miss rate for ReadSharedReq accesses
system.l2.ReadSharedReq_mshr_miss_rate::total     0.213379                       # mshr miss rate for ReadSharedReq accesses
system.l2.demand_mshr_miss_rate::cpu0.inst     0.025849                       # mshr miss rate for demand accesses
system.l2.demand_mshr_miss_rate::cpu0.data     0.590759                       # mshr miss rate for demand accesses
system.l2.demand_mshr_miss_rate::cpu1.inst     0.001894                       # mshr miss rate for demand accesses
system.l2.demand_mshr_miss_rate::cpu1.data     0.418182                       # mshr miss rate for demand accesses
system.l2.demand_mshr_miss_rate::cpu2.inst     0.001358                       # mshr miss rate for demand accesses
system.l2.demand_mshr_miss_rate::cpu2.data     0.310268                       # mshr miss rate for demand accesses
system.l2.demand_mshr_miss_rate::total       0.012033                       # mshr miss rate for demand accesses
system.l2.overall_mshr_miss_rate::cpu0.inst     0.025849                       # mshr miss rate for overall accesses
system.l2.overall_mshr_miss_rate::cpu0.data     0.590759                       # mshr miss rate for overall accesses
system.l2.overall_mshr_miss_rate::cpu1.inst     0.001894                       # mshr miss rate for overall accesses
system.l2.overall_mshr_miss_rate::cpu1.data     0.418182                       # mshr miss rate for overall accesses
system.l2.overall_mshr_miss_rate::cpu2.inst     0.001358                       # mshr miss rate for overall accesses
system.l2.overall_mshr_miss_rate::cpu2.data     0.310268                       # mshr miss rate for overall accesses
system.l2.overall_mshr_miss_rate::total      0.012033                       # mshr miss rate for overall accesses
system.l2.ReadExReq_avg_mshr_miss_latency::cpu0.data 51294.811321                       # average ReadExReq mshr miss latency
system.l2.ReadExReq_avg_mshr_miss_latency::cpu1.data 51392.156863                       # average ReadExReq mshr miss latency
system.l2.ReadExReq_avg_mshr_miss_latency::cpu2.data 51225.663717                       # average ReadExReq mshr miss latency
system.l2.ReadExReq_avg_mshr_miss_latency::total 51299.765808                       # average ReadExReq mshr miss latency
system.l2.ReadCleanReq_avg_mshr_miss_latency::cpu0.inst 51315.942029                       # average ReadCleanReq mshr miss latency
system.l2.ReadCleanReq_avg_mshr_miss_latency::cpu1.inst 51092.105263                       # average ReadCleanReq mshr miss latency
system.l2.ReadCleanReq_avg_mshr_miss_latency::cpu2.inst 51049.295775                       # average ReadCleanReq mshr miss latency
system.l2.ReadCleanReq_avg_mshr_miss_latency::total 51272.998805                       # average ReadCleanReq mshr miss latency
system.l2.ReadSharedReq_avg_mshr_miss_latency::cpu0.data 51897.260274                       # average ReadSharedReq mshr miss latency
system.l2.ReadSharedReq_avg_mshr_miss_latency::cpu1.data 51461.538462                       # average ReadSharedReq mshr miss latency
system.l2.ReadSharedReq_avg_mshr_miss_latency::cpu2.data 51269.230769                       # average ReadSharedReq mshr miss latency
system.l2.ReadSharedReq_avg_mshr_miss_latency::total 51778.378378                       # average ReadSharedReq mshr miss latency
system.l2.demand_avg_mshr_miss_latency::cpu0.inst 51315.942029                       # average overall mshr miss latency
system.l2.demand_avg_mshr_miss_latency::cpu0.data 51540.502793                       # average overall mshr miss latency
system.l2.demand_avg_mshr_miss_latency::cpu1.inst 51092.105263                       # average overall mshr miss latency
system.l2.demand_avg_mshr_miss_latency::cpu1.data        51400                       # average overall mshr miss latency
system.l2.demand_avg_mshr_miss_latency::cpu2.inst 51049.295775                       # average overall mshr miss latency
system.l2.demand_avg_mshr_miss_latency::cpu2.data 51233.812950                       # average overall mshr miss latency
system.l2.demand_avg_mshr_miss_latency::total 51345.410628                       # average overall mshr miss latency
system.l2.overall_avg_mshr_miss_latency::cpu0.inst 51315.942029                       # average overall mshr miss latency
system.l2.overall_avg_mshr_miss_latency::cpu0.data 51540.502793                       # average overall mshr miss latency
system.l2.overall_avg_mshr_miss_latency::cpu1.inst 51092.105263                       # average overall mshr miss latency
system.l2.overall_avg_mshr_miss_latency::cpu1.data        51400                       # average overall mshr miss latency
system.l2.overall_avg_mshr_miss_latency::cpu2.inst 51049.295775                       # average overall mshr miss latency
system.l2.overall_avg_mshr_miss_latency::cpu2.data 51233.812950                       # average overall mshr miss latency
system.l2.overall_avg_mshr_miss_latency::total 51345.410628                       # average overall mshr miss latency
system.membus.snoop_filter.tot_requests          1929                       # Total number of requests made to the snoop filter.
system.membus.snoop_filter.hit_single_requests          322                       # Number of requests hitting in the snoop filter with a single holder of the requested data.
system.membus.snoop_filter.hit_multi_requests            0                       # Number of requests hitting in the snoop filter with multiple (>1) holders of the requested data.
system.membus.snoop_filter.tot_snoops               0                       # Total number of snoops made to the snoop filter.
system.membus.snoop_filter.hit_single_snoops            0                       # Number of snoops hitting in the snoop filter with a single holder of the requested data.
system.membus.snoop_filter.hit_multi_snoops            0                       # Number of snoops hitting in the snoop filter with multiple (>1) holders of the requested data.
system.membus.pwrStateResidencyTicks::UNDEFINED  30452422000                       # Cumulative time (in ticks) in various power states
system.membus.trans_dist::ReadResp               1021                       # Transaction distribution
system.membus.trans_dist::UpgradeReq                6                       # Transaction distribution
system.membus.trans_dist::SCUpgradeReq            316                       # Transaction distribution
system.membus.trans_dist::ReadExReq               427                       # Transaction distribution
system.membus.trans_dist::ReadExResp              427                       # Transaction distribution
system.membus.trans_dist::ReadSharedReq          1021                       # Transaction distribution
system.membus.pkt_count_system.l2.mem_side::system.physmem.port         3218                       # Packet count per connected master and slave (bytes)
system.membus.pkt_count::total                   3218                       # Packet count per connected master and slave (bytes)
system.membus.pkt_size_system.l2.mem_side::system.physmem.port        92672                       # Cumulative packet size per connected master and slave (bytes)
system.membus.pkt_size::total                   92672                       # Cumulative packet size per connected master and slave (bytes)
system.membus.snoops                              322                       # Total snoops (count)
system.membus.snoopTraffic                          0                       # Total snoop traffic (bytes)
system.membus.snoop_fanout::samples              1929                       # Request fanout histogram
system.membus.snoop_fanout::mean                    0                       # Request fanout histogram
system.membus.snoop_fanout::stdev                   0                       # Request fanout histogram
system.membus.snoop_fanout::underflows              0      0.00%      0.00% # Request fanout histogram
system.membus.snoop_fanout::0                    1929    100.00%    100.00% # Request fanout histogram
system.membus.snoop_fanout::1                       0      0.00%    100.00% # Request fanout histogram
system.membus.snoop_fanout::overflows               0      0.00%    100.00% # Request fanout histogram
system.membus.snoop_fanout::min_value               0                       # Request fanout histogram
system.membus.snoop_fanout::max_value               0                       # Request fanout histogram
system.membus.snoop_fanout::total                1929                       # Request fanout histogram
system.membus.reqLayer0.occupancy             2386932                       # Layer occupancy (ticks)
system.membus.reqLayer0.utilization               0.0                       # Layer utilization (%)
system.membus.respLayer1.occupancy            7240000                       # Layer occupancy (ticks)
system.membus.respLayer1.utilization              0.0                       # Layer utilization (%)
system.tol2bus.snoop_filter.tot_requests       240922                       # Total number of requests made to the snoop filter.
system.tol2bus.snoop_filter.hit_single_requests       111202                       # Number of requests hitting in the snoop filter with a single holder of the requested data.
system.tol2bus.snoop_filter.hit_multi_requests        73014                       # Number of requests hitting in the snoop filter with multiple (>1) holders of the requested data.
system.tol2bus.snoop_filter.tot_snoops              0                       # Total number of snoops made to the snoop filter.
system.tol2bus.snoop_filter.hit_single_snoops            0                       # Number of snoops hitting in the snoop filter with a single holder of the requested data.
system.tol2bus.snoop_filter.hit_multi_snoops            0                       # Number of snoops hitting in the snoop filter with multiple (>1) holders of the requested data.
system.tol2bus.pwrStateResidencyTicks::UNDEFINED  30452422000                       # Cumulative time (in ticks) in various power states
system.tol2bus.trans_dist::ReadResp            120767                       # Transaction distribution
system.tol2bus.trans_dist::WritebackDirty          119                       # Transaction distribution
system.tol2bus.trans_dist::WritebackClean       118294                       # Transaction distribution
system.tol2bus.trans_dist::CleanEvict             937                       # Transaction distribution
system.tol2bus.trans_dist::UpgradeReq              16                       # Transaction distribution
system.tol2bus.trans_dist::SCUpgradeReq           316                       # Transaction distribution
system.tol2bus.trans_dist::UpgradeResp            332                       # Transaction distribution
system.tol2bus.trans_dist::ReadExReq              472                       # Transaction distribution
system.tol2bus.trans_dist::ReadExResp             472                       # Transaction distribution
system.tol2bus.trans_dist::ReadCleanReq        119091                       # Transaction distribution
system.tol2bus.trans_dist::ReadSharedReq         1677                       # Transaction distribution
system.tol2bus.pkt_count_system.cpu0.icache.mem_side::system.l2.cpu_side        79611                       # Packet count per connected master and slave (bytes)
system.tol2bus.pkt_count_system.cpu0.dcache.mem_side::system.l2.cpu_side         1788                       # Packet count per connected master and slave (bytes)
system.tol2bus.pkt_count_system.cpu1.icache.mem_side::system.l2.cpu_side       120203                       # Packet count per connected master and slave (bytes)
system.tol2bus.pkt_count_system.cpu1.dcache.mem_side::system.l2.cpu_side         1217                       # Packet count per connected master and slave (bytes)
system.tol2bus.pkt_count_system.cpu2.icache.mem_side::system.l2.cpu_side       156661                       # Packet count per connected master and slave (bytes)
system.tol2bus.pkt_count_system.cpu2.dcache.mem_side::system.l2.cpu_side         1871                       # Packet count per connected master and slave (bytes)
system.tol2bus.pkt_count::total                361351                       # Packet count per connected master and slave (bytes)
system.tol2bus.pkt_size_system.cpu0.icache.mem_side::system.l2.cpu_side      3386752                       # Cumulative packet size per connected master and slave (bytes)
system.tol2bus.pkt_size_system.cpu0.dcache.mem_side::system.l2.cpu_side        44288                       # Cumulative packet size per connected master and slave (bytes)
system.tol2bus.pkt_size_system.cpu1.icache.mem_side::system.l2.cpu_side      5125184                       # Cumulative packet size per connected master and slave (bytes)
system.tol2bus.pkt_size_system.cpu1.dcache.mem_side::system.l2.cpu_side        19712                       # Cumulative packet size per connected master and slave (bytes)
system.tol2bus.pkt_size_system.cpu2.icache.mem_side::system.l2.cpu_side      6680640                       # Cumulative packet size per connected master and slave (bytes)
system.tol2bus.pkt_size_system.cpu2.dcache.mem_side::system.l2.cpu_side        28672                       # Cumulative packet size per connected master and slave (bytes)
system.tol2bus.pkt_size::total               15285248                       # Cumulative packet size per connected master and slave (bytes)
system.tol2bus.snoops                            1142                       # Total snoops (count)
system.tol2bus.snoopTraffic                     52480                       # Total snoop traffic (bytes)
system.tol2bus.snoop_fanout::samples           121572                       # Request fanout histogram
system.tol2bus.snoop_fanout::mean            0.637597                       # Request fanout histogram
system.tol2bus.snoop_fanout::stdev           0.707559                       # Request fanout histogram
system.tol2bus.snoop_fanout::underflows             0      0.00%      0.00% # Request fanout histogram
system.tol2bus.snoop_fanout::0                  56706     46.64%     46.64% # Request fanout histogram
system.tol2bus.snoop_fanout::1                  55955     46.03%     92.67% # Request fanout histogram
system.tol2bus.snoop_fanout::2                   5175      4.26%     96.93% # Request fanout histogram
system.tol2bus.snoop_fanout::3                   3735      3.07%    100.00% # Request fanout histogram
system.tol2bus.snoop_fanout::4                      1      0.00%    100.00% # Request fanout histogram
system.tol2bus.snoop_fanout::5                      0      0.00%    100.00% # Request fanout histogram
system.tol2bus.snoop_fanout::6                      0      0.00%    100.00% # Request fanout histogram
system.tol2bus.snoop_fanout::overflows              0      0.00%    100.00% # Request fanout histogram
system.tol2bus.snoop_fanout::min_value              0                       # Request fanout histogram
system.tol2bus.snoop_fanout::max_value              4                       # Request fanout histogram
system.tol2bus.snoop_fanout::total             121572                       # Request fanout histogram
system.tol2bus.reqLayer0.occupancy          238874499                       # Layer occupancy (ticks)
system.tol2bus.reqLayer0.utilization              0.8                       # Layer utilization (%)
system.tol2bus.respLayer0.occupancy          40038998                       # Layer occupancy (ticks)
system.tol2bus.respLayer0.utilization             0.1                       # Layer utilization (%)
system.tol2bus.respLayer1.occupancy           1202997                       # Layer occupancy (ticks)
system.tol2bus.respLayer1.utilization             0.0                       # Layer utilization (%)
system.tol2bus.respLayer4.occupancy          60222419                       # Layer occupancy (ticks)
system.tol2bus.respLayer4.utilization             0.2                       # Layer utilization (%)
system.tol2bus.respLayer5.occupancy            913484                       # Layer occupancy (ticks)
system.tol2bus.respLayer5.utilization             0.0                       # Layer utilization (%)
system.tol2bus.respLayer8.occupancy          78456914                       # Layer occupancy (ticks)
system.tol2bus.respLayer8.utilization             0.3                       # Layer utilization (%)
system.tol2bus.respLayer9.occupancy           1285987                       # Layer occupancy (ticks)
system.tol2bus.respLayer9.utilization             0.0                       # Layer utilization (%)

---------- End Simulation Statistics   ----------
