
---------- Begin Simulation Statistics ----------
sim_seconds                                  0.019423                       # Number of seconds simulated
sim_ticks                                 19423393000                       # Number of ticks simulated
final_tick                                19423393000                       # Number of ticks from beginning of simulation (restored from checkpoints and never reset)
sim_freq                                 1000000000000                       # Frequency of simulated ticks
host_inst_rate                                 241546                       # Simulator instruction rate (inst/s)
host_op_rate                                   280412                       # Simulator op (including micro ops) rate (op/s)
host_tick_rate                              111972251                       # Simulator tick rate (ticks/s)
host_mem_usage                                 677616                       # Number of bytes of host memory used
host_seconds                                   173.47                       # Real time elapsed on the host
sim_insts                                    41900009                       # Number of instructions simulated
sim_ops                                      48642039                       # Number of ops (including micro ops) simulated
system.voltage_domain.voltage                       1                       # Voltage in Volts
system.clk_domain.clock                          1000                       # Clock period in ticks
system.physmem.pwrStateResidencyTicks::UNDEFINED  19423393000                       # Cumulative time (in ticks) in various power states
system.physmem.bytes_read::cpu0.inst            48000                       # Number of bytes read from this memory
system.physmem.bytes_read::cpu0.data            29568                       # Number of bytes read from this memory
system.physmem.bytes_read::cpu1.inst             6464                       # Number of bytes read from this memory
system.physmem.bytes_read::cpu1.data             5504                       # Number of bytes read from this memory
system.physmem.bytes_read::cpu2.inst             2240                       # Number of bytes read from this memory
system.physmem.bytes_read::cpu2.data             7744                       # Number of bytes read from this memory
system.physmem.bytes_read::total                99520                       # Number of bytes read from this memory
system.physmem.bytes_inst_read::cpu0.inst        48000                       # Number of instructions bytes read from this memory
system.physmem.bytes_inst_read::cpu1.inst         6464                       # Number of instructions bytes read from this memory
system.physmem.bytes_inst_read::cpu2.inst         2240                       # Number of instructions bytes read from this memory
system.physmem.bytes_inst_read::total           56704                       # Number of instructions bytes read from this memory
system.physmem.num_reads::cpu0.inst               750                       # Number of read requests responded to by this memory
system.physmem.num_reads::cpu0.data               462                       # Number of read requests responded to by this memory
system.physmem.num_reads::cpu1.inst               101                       # Number of read requests responded to by this memory
system.physmem.num_reads::cpu1.data                86                       # Number of read requests responded to by this memory
system.physmem.num_reads::cpu2.inst                35                       # Number of read requests responded to by this memory
system.physmem.num_reads::cpu2.data               121                       # Number of read requests responded to by this memory
system.physmem.num_reads::total                  1555                       # Number of read requests responded to by this memory
system.physmem.bw_read::cpu0.inst             2471247                       # Total read bandwidth from this memory (bytes/s)
system.physmem.bw_read::cpu0.data             1522288                       # Total read bandwidth from this memory (bytes/s)
system.physmem.bw_read::cpu1.inst              332795                       # Total read bandwidth from this memory (bytes/s)
system.physmem.bw_read::cpu1.data              283370                       # Total read bandwidth from this memory (bytes/s)
system.physmem.bw_read::cpu2.inst              115325                       # Total read bandwidth from this memory (bytes/s)
system.physmem.bw_read::cpu2.data              398695                       # Total read bandwidth from this memory (bytes/s)
system.physmem.bw_read::total                 5123719                       # Total read bandwidth from this memory (bytes/s)
system.physmem.bw_inst_read::cpu0.inst        2471247                       # Instruction read bandwidth from this memory (bytes/s)
system.physmem.bw_inst_read::cpu1.inst         332795                       # Instruction read bandwidth from this memory (bytes/s)
system.physmem.bw_inst_read::cpu2.inst         115325                       # Instruction read bandwidth from this memory (bytes/s)
system.physmem.bw_inst_read::total            2919366                       # Instruction read bandwidth from this memory (bytes/s)
system.physmem.bw_total::cpu0.inst            2471247                       # Total bandwidth to/from this memory (bytes/s)
system.physmem.bw_total::cpu0.data            1522288                       # Total bandwidth to/from this memory (bytes/s)
system.physmem.bw_total::cpu1.inst             332795                       # Total bandwidth to/from this memory (bytes/s)
system.physmem.bw_total::cpu1.data             283370                       # Total bandwidth to/from this memory (bytes/s)
system.physmem.bw_total::cpu2.inst             115325                       # Total bandwidth to/from this memory (bytes/s)
system.physmem.bw_total::cpu2.data             398695                       # Total bandwidth to/from this memory (bytes/s)
system.physmem.bw_total::total                5123719                       # Total bandwidth to/from this memory (bytes/s)
system.pwrStateResidencyTicks::UNDEFINED  19423393000                       # Cumulative time (in ticks) in various power states
system.cpu0.branchPred.lookups                4066311                       # Number of BP lookups
system.cpu0.branchPred.condPredicted          2807060                       # Number of conditional branches predicted
system.cpu0.branchPred.condIncorrect           196448                       # Number of conditional branches incorrect
system.cpu0.branchPred.BTBLookups             1814442                       # Number of BTB lookups
system.cpu0.branchPred.BTBHits                1635783                       # Number of BTB hits
system.cpu0.branchPred.BTBCorrect                   0                       # Number of correct BTB predictions (this stat may not work properly.
system.cpu0.branchPred.BTBHitPct            90.153502                       # BTB Hit Percentage
system.cpu0.branchPred.usedRAS                 524361                       # Number of times the RAS was used to get a target.
system.cpu0.branchPred.RASInCorrect             22846                       # Number of incorrect RAS predictions.
system.cpu0.branchPred.indirectLookups          78369                       # Number of indirect predictor lookups.
system.cpu0.branchPred.indirectHits             73193                       # Number of indirect target hits.
system.cpu0.branchPred.indirectMisses            5176                       # Number of indirect misses.
system.cpu0.branchPredindirectMispredicted         4099                       # Number of mispredicted indirect branches.
system.cpu0.dstage2_mmu.stage2_tlb.walker.pwrStateResidencyTicks::UNDEFINED  19423393000                       # Cumulative time (in ticks) in various power states
system.cpu0.dstage2_mmu.stage2_tlb.walker.walks            0                       # Table walker walks requested
system.cpu0.dstage2_mmu.stage2_tlb.walker.walkRequestOrigin_Requested::Data            0                       # Table walker requests started/completed, data/inst
system.cpu0.dstage2_mmu.stage2_tlb.walker.walkRequestOrigin_Requested::Inst            0                       # Table walker requests started/completed, data/inst
system.cpu0.dstage2_mmu.stage2_tlb.walker.walkRequestOrigin_Requested::total            0                       # Table walker requests started/completed, data/inst
system.cpu0.dstage2_mmu.stage2_tlb.walker.walkRequestOrigin_Completed::Data            0                       # Table walker requests started/completed, data/inst
system.cpu0.dstage2_mmu.stage2_tlb.walker.walkRequestOrigin_Completed::Inst            0                       # Table walker requests started/completed, data/inst
system.cpu0.dstage2_mmu.stage2_tlb.walker.walkRequestOrigin_Completed::total            0                       # Table walker requests started/completed, data/inst
system.cpu0.dstage2_mmu.stage2_tlb.walker.walkRequestOrigin::total            0                       # Table walker requests started/completed, data/inst
system.cpu0.dstage2_mmu.stage2_tlb.inst_hits            0                       # ITB inst hits
system.cpu0.dstage2_mmu.stage2_tlb.inst_misses            0                       # ITB inst misses
system.cpu0.dstage2_mmu.stage2_tlb.read_hits            0                       # DTB read hits
system.cpu0.dstage2_mmu.stage2_tlb.read_misses            0                       # DTB read misses
system.cpu0.dstage2_mmu.stage2_tlb.write_hits            0                       # DTB write hits
system.cpu0.dstage2_mmu.stage2_tlb.write_misses            0                       # DTB write misses
system.cpu0.dstage2_mmu.stage2_tlb.flush_tlb            0                       # Number of times complete TLB was flushed
system.cpu0.dstage2_mmu.stage2_tlb.flush_tlb_mva            0                       # Number of times TLB was flushed by MVA
system.cpu0.dstage2_mmu.stage2_tlb.flush_tlb_mva_asid            0                       # Number of times TLB was flushed by MVA & ASID
system.cpu0.dstage2_mmu.stage2_tlb.flush_tlb_asid            0                       # Number of times TLB was flushed by ASID
system.cpu0.dstage2_mmu.stage2_tlb.flush_entries            0                       # Number of entries that have been flushed from TLB
system.cpu0.dstage2_mmu.stage2_tlb.align_faults            0                       # Number of TLB faults due to alignment restrictions
system.cpu0.dstage2_mmu.stage2_tlb.prefetch_faults            0                       # Number of TLB faults due to prefetch
system.cpu0.dstage2_mmu.stage2_tlb.domain_faults            0                       # Number of TLB faults due to domain restrictions
system.cpu0.dstage2_mmu.stage2_tlb.perms_faults            0                       # Number of TLB faults due to permissions restrictions
system.cpu0.dstage2_mmu.stage2_tlb.read_accesses            0                       # DTB read accesses
system.cpu0.dstage2_mmu.stage2_tlb.write_accesses            0                       # DTB write accesses
system.cpu0.dstage2_mmu.stage2_tlb.inst_accesses            0                       # ITB inst accesses
system.cpu0.dstage2_mmu.stage2_tlb.hits             0                       # DTB hits
system.cpu0.dstage2_mmu.stage2_tlb.misses            0                       # DTB misses
system.cpu0.dstage2_mmu.stage2_tlb.accesses            0                       # DTB accesses
system.cpu0.dtb.walker.pwrStateResidencyTicks::UNDEFINED  19423393000                       # Cumulative time (in ticks) in various power states
system.cpu0.dtb.walker.walks                        0                       # Table walker walks requested
system.cpu0.dtb.walker.walkRequestOrigin_Requested::Data            0                       # Table walker requests started/completed, data/inst
system.cpu0.dtb.walker.walkRequestOrigin_Requested::Inst            0                       # Table walker requests started/completed, data/inst
system.cpu0.dtb.walker.walkRequestOrigin_Requested::total            0                       # Table walker requests started/completed, data/inst
system.cpu0.dtb.walker.walkRequestOrigin_Completed::Data            0                       # Table walker requests started/completed, data/inst
system.cpu0.dtb.walker.walkRequestOrigin_Completed::Inst            0                       # Table walker requests started/completed, data/inst
system.cpu0.dtb.walker.walkRequestOrigin_Completed::total            0                       # Table walker requests started/completed, data/inst
system.cpu0.dtb.walker.walkRequestOrigin::total            0                       # Table walker requests started/completed, data/inst
system.cpu0.dtb.inst_hits                           0                       # ITB inst hits
system.cpu0.dtb.inst_misses                         0                       # ITB inst misses
system.cpu0.dtb.read_hits                           0                       # DTB read hits
system.cpu0.dtb.read_misses                         0                       # DTB read misses
system.cpu0.dtb.write_hits                          0                       # DTB write hits
system.cpu0.dtb.write_misses                        0                       # DTB write misses
system.cpu0.dtb.flush_tlb                           0                       # Number of times complete TLB was flushed
system.cpu0.dtb.flush_tlb_mva                       0                       # Number of times TLB was flushed by MVA
system.cpu0.dtb.flush_tlb_mva_asid                  0                       # Number of times TLB was flushed by MVA & ASID
system.cpu0.dtb.flush_tlb_asid                      0                       # Number of times TLB was flushed by ASID
system.cpu0.dtb.flush_entries                       0                       # Number of entries that have been flushed from TLB
system.cpu0.dtb.align_faults                        0                       # Number of TLB faults due to alignment restrictions
system.cpu0.dtb.prefetch_faults                     0                       # Number of TLB faults due to prefetch
system.cpu0.dtb.domain_faults                       0                       # Number of TLB faults due to domain restrictions
system.cpu0.dtb.perms_faults                        0                       # Number of TLB faults due to permissions restrictions
system.cpu0.dtb.read_accesses                       0                       # DTB read accesses
system.cpu0.dtb.write_accesses                      0                       # DTB write accesses
system.cpu0.dtb.inst_accesses                       0                       # ITB inst accesses
system.cpu0.dtb.hits                                0                       # DTB hits
system.cpu0.dtb.misses                              0                       # DTB misses
system.cpu0.dtb.accesses                            0                       # DTB accesses
system.cpu0.istage2_mmu.stage2_tlb.walker.pwrStateResidencyTicks::UNDEFINED  19423393000                       # Cumulative time (in ticks) in various power states
system.cpu0.istage2_mmu.stage2_tlb.walker.walks            0                       # Table walker walks requested
system.cpu0.istage2_mmu.stage2_tlb.walker.walkRequestOrigin_Requested::Data            0                       # Table walker requests started/completed, data/inst
system.cpu0.istage2_mmu.stage2_tlb.walker.walkRequestOrigin_Requested::Inst            0                       # Table walker requests started/completed, data/inst
system.cpu0.istage2_mmu.stage2_tlb.walker.walkRequestOrigin_Requested::total            0                       # Table walker requests started/completed, data/inst
system.cpu0.istage2_mmu.stage2_tlb.walker.walkRequestOrigin_Completed::Data            0                       # Table walker requests started/completed, data/inst
system.cpu0.istage2_mmu.stage2_tlb.walker.walkRequestOrigin_Completed::Inst            0                       # Table walker requests started/completed, data/inst
system.cpu0.istage2_mmu.stage2_tlb.walker.walkRequestOrigin_Completed::total            0                       # Table walker requests started/completed, data/inst
system.cpu0.istage2_mmu.stage2_tlb.walker.walkRequestOrigin::total            0                       # Table walker requests started/completed, data/inst
system.cpu0.istage2_mmu.stage2_tlb.inst_hits            0                       # ITB inst hits
system.cpu0.istage2_mmu.stage2_tlb.inst_misses            0                       # ITB inst misses
system.cpu0.istage2_mmu.stage2_tlb.read_hits            0                       # DTB read hits
system.cpu0.istage2_mmu.stage2_tlb.read_misses            0                       # DTB read misses
system.cpu0.istage2_mmu.stage2_tlb.write_hits            0                       # DTB write hits
system.cpu0.istage2_mmu.stage2_tlb.write_misses            0                       # DTB write misses
system.cpu0.istage2_mmu.stage2_tlb.flush_tlb            0                       # Number of times complete TLB was flushed
system.cpu0.istage2_mmu.stage2_tlb.flush_tlb_mva            0                       # Number of times TLB was flushed by MVA
system.cpu0.istage2_mmu.stage2_tlb.flush_tlb_mva_asid            0                       # Number of times TLB was flushed by MVA & ASID
system.cpu0.istage2_mmu.stage2_tlb.flush_tlb_asid            0                       # Number of times TLB was flushed by ASID
system.cpu0.istage2_mmu.stage2_tlb.flush_entries            0                       # Number of entries that have been flushed from TLB
system.cpu0.istage2_mmu.stage2_tlb.align_faults            0                       # Number of TLB faults due to alignment restrictions
system.cpu0.istage2_mmu.stage2_tlb.prefetch_faults            0                       # Number of TLB faults due to prefetch
system.cpu0.istage2_mmu.stage2_tlb.domain_faults            0                       # Number of TLB faults due to domain restrictions
system.cpu0.istage2_mmu.stage2_tlb.perms_faults            0                       # Number of TLB faults due to permissions restrictions
system.cpu0.istage2_mmu.stage2_tlb.read_accesses            0                       # DTB read accesses
system.cpu0.istage2_mmu.stage2_tlb.write_accesses            0                       # DTB write accesses
system.cpu0.istage2_mmu.stage2_tlb.inst_accesses            0                       # ITB inst accesses
system.cpu0.istage2_mmu.stage2_tlb.hits             0                       # DTB hits
system.cpu0.istage2_mmu.stage2_tlb.misses            0                       # DTB misses
system.cpu0.istage2_mmu.stage2_tlb.accesses            0                       # DTB accesses
system.cpu0.itb.walker.pwrStateResidencyTicks::UNDEFINED  19423393000                       # Cumulative time (in ticks) in various power states
system.cpu0.itb.walker.walks                        0                       # Table walker walks requested
system.cpu0.itb.walker.walkRequestOrigin_Requested::Data            0                       # Table walker requests started/completed, data/inst
system.cpu0.itb.walker.walkRequestOrigin_Requested::Inst            0                       # Table walker requests started/completed, data/inst
system.cpu0.itb.walker.walkRequestOrigin_Requested::total            0                       # Table walker requests started/completed, data/inst
system.cpu0.itb.walker.walkRequestOrigin_Completed::Data            0                       # Table walker requests started/completed, data/inst
system.cpu0.itb.walker.walkRequestOrigin_Completed::Inst            0                       # Table walker requests started/completed, data/inst
system.cpu0.itb.walker.walkRequestOrigin_Completed::total            0                       # Table walker requests started/completed, data/inst
system.cpu0.itb.walker.walkRequestOrigin::total            0                       # Table walker requests started/completed, data/inst
system.cpu0.itb.inst_hits                           0                       # ITB inst hits
system.cpu0.itb.inst_misses                         0                       # ITB inst misses
system.cpu0.itb.read_hits                           0                       # DTB read hits
system.cpu0.itb.read_misses                         0                       # DTB read misses
system.cpu0.itb.write_hits                          0                       # DTB write hits
system.cpu0.itb.write_misses                        0                       # DTB write misses
system.cpu0.itb.flush_tlb                           0                       # Number of times complete TLB was flushed
system.cpu0.itb.flush_tlb_mva                       0                       # Number of times TLB was flushed by MVA
system.cpu0.itb.flush_tlb_mva_asid                  0                       # Number of times TLB was flushed by MVA & ASID
system.cpu0.itb.flush_tlb_asid                      0                       # Number of times TLB was flushed by ASID
system.cpu0.itb.flush_entries                       0                       # Number of entries that have been flushed from TLB
system.cpu0.itb.align_faults                        0                       # Number of TLB faults due to alignment restrictions
system.cpu0.itb.prefetch_faults                     0                       # Number of TLB faults due to prefetch
system.cpu0.itb.domain_faults                       0                       # Number of TLB faults due to domain restrictions
system.cpu0.itb.perms_faults                        0                       # Number of TLB faults due to permissions restrictions
system.cpu0.itb.read_accesses                       0                       # DTB read accesses
system.cpu0.itb.write_accesses                      0                       # DTB write accesses
system.cpu0.itb.inst_accesses                       0                       # ITB inst accesses
system.cpu0.itb.hits                                0                       # DTB hits
system.cpu0.itb.misses                              0                       # DTB misses
system.cpu0.itb.accesses                            0                       # DTB accesses
system.cpu0.workload.num_syscalls                  59                       # Number of system calls
system.cpu0.pwrStateResidencyTicks::ON    19423393000                       # Cumulative time (in ticks) in various power states
system.cpu0.numCycles                        19423394                       # number of cpu cycles simulated
system.cpu0.numWorkItemsStarted                     0                       # number of work items this cpu started
system.cpu0.numWorkItemsCompleted                   0                       # number of work items this cpu completed
system.cpu0.fetch.icacheStallCycles           3921107                       # Number of cycles fetch is stalled on an Icache miss
system.cpu0.fetch.Insts                      23479247                       # Number of instructions fetch has processed
system.cpu0.fetch.Branches                    4066311                       # Number of branches that fetch encountered
system.cpu0.fetch.predictedBranches           2233337                       # Number of branches that fetch has predicted taken
system.cpu0.fetch.Cycles                     15279290                       # Number of cycles fetch has run and was not squashing or blocked
system.cpu0.fetch.SquashCycles                 397083                       # Number of cycles fetch has spent squashing
system.cpu0.fetch.PendingTrapStallCycles          152                       # Number of stall cycles due to pending traps
system.cpu0.fetch.CacheLines                  3223453                       # Number of cache lines fetched
system.cpu0.fetch.IcacheSquashes                37620                       # Number of outstanding Icache misses that were squashed
system.cpu0.fetch.rateDist::samples          19399090                       # Number of instructions fetched each cycle (Total)
system.cpu0.fetch.rateDist::mean             1.407720                       # Number of instructions fetched each cycle (Total)
system.cpu0.fetch.rateDist::stdev            0.860734                       # Number of instructions fetched each cycle (Total)
system.cpu0.fetch.rateDist::underflows              0      0.00%      0.00% # Number of instructions fetched each cycle (Total)
system.cpu0.fetch.rateDist::0                 4843738     24.97%     24.97% # Number of instructions fetched each cycle (Total)
system.cpu0.fetch.rateDist::1                 1802220      9.29%     34.26% # Number of instructions fetched each cycle (Total)
system.cpu0.fetch.rateDist::2                12753132     65.74%    100.00% # Number of instructions fetched each cycle (Total)
system.cpu0.fetch.rateDist::overflows               0      0.00%    100.00% # Number of instructions fetched each cycle (Total)
system.cpu0.fetch.rateDist::min_value               0                       # Number of instructions fetched each cycle (Total)
system.cpu0.fetch.rateDist::max_value               2                       # Number of instructions fetched each cycle (Total)
system.cpu0.fetch.rateDist::total            19399090                       # Number of instructions fetched each cycle (Total)
system.cpu0.fetch.branchRate                 0.209351                       # Number of branch fetches per cycle
system.cpu0.fetch.rate                       1.208813                       # Number of inst fetches per cycle
system.cpu0.decode.IdleCycles                 3830222                       # Number of cycles decode is idle
system.cpu0.decode.BlockedCycles              1506378                       # Number of cycles decode is blocked
system.cpu0.decode.RunCycles                 12524655                       # Number of cycles decode is running
system.cpu0.decode.UnblockCycles              1358919                       # Number of cycles decode is unblocking
system.cpu0.decode.SquashCycles                178916                       # Number of cycles decode is squashing
system.cpu0.decode.BranchResolved              724129                       # Number of times decode resolved a branch
system.cpu0.decode.BranchMispred                19999                       # Number of times decode detected a branch misprediction
system.cpu0.decode.DecodedInsts              26360735                       # Number of instructions handled by decode
system.cpu0.decode.SquashedInsts                25108                       # Number of squashed instructions handled by decode
system.cpu0.rename.SquashCycles                178916                       # Number of cycles rename is squashing
system.cpu0.rename.IdleCycles                 4070988                       # Number of cycles rename is idle
system.cpu0.rename.BlockCycles                 534245                       # Number of cycles rename is blocking
system.cpu0.rename.serializeStallCycles        197455                       # count of cycles rename stalled for serializing inst
system.cpu0.rename.RunCycles                 13632050                       # Number of cycles rename is running
system.cpu0.rename.UnblockCycles               785436                       # Number of cycles rename is unblocking
system.cpu0.rename.RenamedInsts              26096824                       # Number of instructions processed by rename
system.cpu0.rename.IQFullEvents                684028                       # Number of times rename has blocked due to IQ full
system.cpu0.rename.SQFullEvents                   282                       # Number of times rename has blocked due to SQ full
system.cpu0.rename.RenamedOperands           35507476                       # Number of destination operands rename has renamed
system.cpu0.rename.RenameLookups            121987778                       # Number of register rename lookups that rename has made
system.cpu0.rename.int_rename_lookups        35330015                       # Number of integer rename lookups
system.cpu0.rename.fp_rename_lookups               16                       # Number of floating rename lookups
system.cpu0.rename.CommittedMaps             27560093                       # Number of HB maps that are committed
system.cpu0.rename.UndoneMaps                 7947383                       # Number of HB maps that are undone due to squashing
system.cpu0.rename.serializingInsts             14510                       # count of serializing insts renamed
system.cpu0.rename.tempSerializingInsts          3954                       # count of temporary serializing insts renamed
system.cpu0.rename.skidInsts                   832309                       # count of insts added to the skid buffer
system.cpu0.memDep0.insertedLoads             2458237                       # Number of loads inserted to the mem dependence unit.
system.cpu0.memDep0.insertedStores            2216294                       # Number of stores inserted to the mem dependence unit.
system.cpu0.memDep0.conflictingLoads            95925                       # Number of conflicting loads.
system.cpu0.memDep0.conflictingStores          413766                       # Number of conflicting stores.
system.cpu0.iq.iqInstsAdded                  25574042                       # Number of instructions added to the IQ (excludes non-spec)
system.cpu0.iq.iqNonSpecInstsAdded               5920                       # Number of non-speculative instructions added to the IQ
system.cpu0.iq.iqInstsIssued                 21471721                       # Number of instructions issued
system.cpu0.iq.iqSquashedInstsIssued           663456                       # Number of squashed instructions issued
system.cpu0.iq.iqSquashedInstsExamined        4928816                       # Number of squashed instructions iterated over during squash; mainly for profiling
system.cpu0.iq.iqSquashedOperandsExamined     19815377                       # Number of squashed operands that are examined and possibly removed from graph
system.cpu0.iq.iqSquashedNonSpecRemoved            39                       # Number of squashed non-spec instructions that were removed
system.cpu0.iq.issued_per_cycle::samples     19399090                       # Number of insts issued each cycle
system.cpu0.iq.issued_per_cycle::mean        1.106842                       # Number of insts issued each cycle
system.cpu0.iq.issued_per_cycle::stdev       0.562423                       # Number of insts issued each cycle
system.cpu0.iq.issued_per_cycle::underflows            0      0.00%      0.00% # Number of insts issued each cycle
system.cpu0.iq.issued_per_cycle::0            2142566     11.04%     11.04% # Number of insts issued each cycle
system.cpu0.iq.issued_per_cycle::1           13041327     67.23%     78.27% # Number of insts issued each cycle
system.cpu0.iq.issued_per_cycle::2            4215197     21.73%    100.00% # Number of insts issued each cycle
system.cpu0.iq.issued_per_cycle::overflows            0      0.00%    100.00% # Number of insts issued each cycle
system.cpu0.iq.issued_per_cycle::min_value            0                       # Number of insts issued each cycle
system.cpu0.iq.issued_per_cycle::max_value            2                       # Number of insts issued each cycle
system.cpu0.iq.issued_per_cycle::total       19399090                       # Number of insts issued each cycle
system.cpu0.iq.fu_full::No_OpClass                  0      0.00%      0.00% # attempts to use FU when none available
system.cpu0.iq.fu_full::IntAlu               12344551     93.45%     93.45% # attempts to use FU when none available
system.cpu0.iq.fu_full::IntMult                     0      0.00%     93.45% # attempts to use FU when none available
system.cpu0.iq.fu_full::IntDiv                      0      0.00%     93.45% # attempts to use FU when none available
system.cpu0.iq.fu_full::FloatAdd                    0      0.00%     93.45% # attempts to use FU when none available
system.cpu0.iq.fu_full::FloatCmp                    0      0.00%     93.45% # attempts to use FU when none available
system.cpu0.iq.fu_full::FloatCvt                    0      0.00%     93.45% # attempts to use FU when none available
system.cpu0.iq.fu_full::FloatMult                   0      0.00%     93.45% # attempts to use FU when none available
system.cpu0.iq.fu_full::FloatMultAcc                0      0.00%     93.45% # attempts to use FU when none available
system.cpu0.iq.fu_full::FloatDiv                    0      0.00%     93.45% # attempts to use FU when none available
system.cpu0.iq.fu_full::FloatMisc                   0      0.00%     93.45% # attempts to use FU when none available
system.cpu0.iq.fu_full::FloatSqrt                   0      0.00%     93.45% # attempts to use FU when none available
system.cpu0.iq.fu_full::SimdAdd                     0      0.00%     93.45% # attempts to use FU when none available
system.cpu0.iq.fu_full::SimdAddAcc                  0      0.00%     93.45% # attempts to use FU when none available
system.cpu0.iq.fu_full::SimdAlu                     0      0.00%     93.45% # attempts to use FU when none available
system.cpu0.iq.fu_full::SimdCmp                     0      0.00%     93.45% # attempts to use FU when none available
system.cpu0.iq.fu_full::SimdCvt                     0      0.00%     93.45% # attempts to use FU when none available
system.cpu0.iq.fu_full::SimdMisc                    0      0.00%     93.45% # attempts to use FU when none available
system.cpu0.iq.fu_full::SimdMult                    0      0.00%     93.45% # attempts to use FU when none available
system.cpu0.iq.fu_full::SimdMultAcc                 0      0.00%     93.45% # attempts to use FU when none available
system.cpu0.iq.fu_full::SimdShift                   0      0.00%     93.45% # attempts to use FU when none available
system.cpu0.iq.fu_full::SimdShiftAcc                0      0.00%     93.45% # attempts to use FU when none available
system.cpu0.iq.fu_full::SimdSqrt                    0      0.00%     93.45% # attempts to use FU when none available
system.cpu0.iq.fu_full::SimdFloatAdd                0      0.00%     93.45% # attempts to use FU when none available
system.cpu0.iq.fu_full::SimdFloatAlu                0      0.00%     93.45% # attempts to use FU when none available
system.cpu0.iq.fu_full::SimdFloatCmp                0      0.00%     93.45% # attempts to use FU when none available
system.cpu0.iq.fu_full::SimdFloatCvt                0      0.00%     93.45% # attempts to use FU when none available
system.cpu0.iq.fu_full::SimdFloatDiv                0      0.00%     93.45% # attempts to use FU when none available
system.cpu0.iq.fu_full::SimdFloatMisc               0      0.00%     93.45% # attempts to use FU when none available
system.cpu0.iq.fu_full::SimdFloatMult               0      0.00%     93.45% # attempts to use FU when none available
system.cpu0.iq.fu_full::SimdFloatMultAcc            0      0.00%     93.45% # attempts to use FU when none available
system.cpu0.iq.fu_full::SimdFloatSqrt               0      0.00%     93.45% # attempts to use FU when none available
system.cpu0.iq.fu_full::MemRead                474581      3.59%     97.04% # attempts to use FU when none available
system.cpu0.iq.fu_full::MemWrite               391082      2.96%    100.00% # attempts to use FU when none available
system.cpu0.iq.fu_full::FloatMemRead                0      0.00%    100.00% # attempts to use FU when none available
system.cpu0.iq.fu_full::FloatMemWrite               0      0.00%    100.00% # attempts to use FU when none available
system.cpu0.iq.fu_full::IprAccess                   0      0.00%    100.00% # attempts to use FU when none available
system.cpu0.iq.fu_full::InstPrefetch                0      0.00%    100.00% # attempts to use FU when none available
system.cpu0.iq.FU_type_0::No_OpClass                0      0.00%      0.00% # Type of FU issued
system.cpu0.iq.FU_type_0::IntAlu             16774574     78.12%     78.12% # Type of FU issued
system.cpu0.iq.FU_type_0::IntMult              329161      1.53%     79.66% # Type of FU issued
system.cpu0.iq.FU_type_0::IntDiv                    0      0.00%     79.66% # Type of FU issued
system.cpu0.iq.FU_type_0::FloatAdd                  0      0.00%     79.66% # Type of FU issued
system.cpu0.iq.FU_type_0::FloatCmp                  0      0.00%     79.66% # Type of FU issued
system.cpu0.iq.FU_type_0::FloatCvt                  0      0.00%     79.66% # Type of FU issued
system.cpu0.iq.FU_type_0::FloatMult                 0      0.00%     79.66% # Type of FU issued
system.cpu0.iq.FU_type_0::FloatMultAcc              0      0.00%     79.66% # Type of FU issued
system.cpu0.iq.FU_type_0::FloatDiv                  0      0.00%     79.66% # Type of FU issued
system.cpu0.iq.FU_type_0::FloatMisc                 0      0.00%     79.66% # Type of FU issued
system.cpu0.iq.FU_type_0::FloatSqrt                 0      0.00%     79.66% # Type of FU issued
system.cpu0.iq.FU_type_0::SimdAdd                   0      0.00%     79.66% # Type of FU issued
system.cpu0.iq.FU_type_0::SimdAddAcc                0      0.00%     79.66% # Type of FU issued
system.cpu0.iq.FU_type_0::SimdAlu                   0      0.00%     79.66% # Type of FU issued
system.cpu0.iq.FU_type_0::SimdCmp                   0      0.00%     79.66% # Type of FU issued
system.cpu0.iq.FU_type_0::SimdCvt                   0      0.00%     79.66% # Type of FU issued
system.cpu0.iq.FU_type_0::SimdMisc                  0      0.00%     79.66% # Type of FU issued
system.cpu0.iq.FU_type_0::SimdMult                  0      0.00%     79.66% # Type of FU issued
system.cpu0.iq.FU_type_0::SimdMultAcc               0      0.00%     79.66% # Type of FU issued
system.cpu0.iq.FU_type_0::SimdShift                 0      0.00%     79.66% # Type of FU issued
system.cpu0.iq.FU_type_0::SimdShiftAcc              0      0.00%     79.66% # Type of FU issued
system.cpu0.iq.FU_type_0::SimdSqrt                  0      0.00%     79.66% # Type of FU issued
system.cpu0.iq.FU_type_0::SimdFloatAdd              0      0.00%     79.66% # Type of FU issued
system.cpu0.iq.FU_type_0::SimdFloatAlu              0      0.00%     79.66% # Type of FU issued
system.cpu0.iq.FU_type_0::SimdFloatCmp              0      0.00%     79.66% # Type of FU issued
system.cpu0.iq.FU_type_0::SimdFloatCvt              0      0.00%     79.66% # Type of FU issued
system.cpu0.iq.FU_type_0::SimdFloatDiv              0      0.00%     79.66% # Type of FU issued
system.cpu0.iq.FU_type_0::SimdFloatMisc         11961      0.06%     79.71% # Type of FU issued
system.cpu0.iq.FU_type_0::SimdFloatMult             0      0.00%     79.71% # Type of FU issued
system.cpu0.iq.FU_type_0::SimdFloatMultAcc            0      0.00%     79.71% # Type of FU issued
system.cpu0.iq.FU_type_0::SimdFloatSqrt             0      0.00%     79.71% # Type of FU issued
system.cpu0.iq.FU_type_0::MemRead             2344323     10.92%     90.63% # Type of FU issued
system.cpu0.iq.FU_type_0::MemWrite            2011686      9.37%    100.00% # Type of FU issued
system.cpu0.iq.FU_type_0::FloatMemRead              0      0.00%    100.00% # Type of FU issued
system.cpu0.iq.FU_type_0::FloatMemWrite            16      0.00%    100.00% # Type of FU issued
system.cpu0.iq.FU_type_0::IprAccess                 0      0.00%    100.00% # Type of FU issued
system.cpu0.iq.FU_type_0::InstPrefetch              0      0.00%    100.00% # Type of FU issued
system.cpu0.iq.FU_type_0::total              21471721                       # Type of FU issued
system.cpu0.iq.rate                          1.105457                       # Inst issue rate
system.cpu0.iq.fu_busy_cnt                   13210214                       # FU busy when requested
system.cpu0.iq.fu_busy_rate                  0.615238                       # FU busy rate (busy events/executed inst)
system.cpu0.iq.int_inst_queue_reads          76216170                       # Number of integer instruction queue reads
system.cpu0.iq.int_inst_queue_writes         30509007                       # Number of integer instruction queue writes
system.cpu0.iq.int_inst_queue_wakeup_accesses     21287620                       # Number of integer instruction queue wakeup accesses
system.cpu0.iq.fp_inst_queue_reads                 32                       # Number of floating instruction queue reads
system.cpu0.iq.fp_inst_queue_writes                16                       # Number of floating instruction queue writes
system.cpu0.iq.fp_inst_queue_wakeup_accesses           16                       # Number of floating instruction queue wakeup accesses
system.cpu0.iq.int_alu_accesses              34681919                       # Number of integer alu accesses
system.cpu0.iq.fp_alu_accesses                     16                       # Number of floating point alu accesses
system.cpu0.iew.lsq.thread0.forwLoads           67173                       # Number of loads that had data forwarded from stores
system.cpu0.iew.lsq.thread0.invAddrLoads            0                       # Number of loads ignored due to an invalid address
system.cpu0.iew.lsq.thread0.squashedLoads       385686                       # Number of loads squashed
system.cpu0.iew.lsq.thread0.ignoredResponses           24                       # Number of memory responses ignored because the instruction is squashed
system.cpu0.iew.lsq.thread0.memOrderViolation          247                       # Number of memory ordering violations
system.cpu0.iew.lsq.thread0.squashedStores       288072                       # Number of stores squashed
system.cpu0.iew.lsq.thread0.invAddrSwpfs            0                       # Number of software prefetches ignored due to an invalid address
system.cpu0.iew.lsq.thread0.blockedLoads            0                       # Number of blocked loads due to partial load-store forwarding
system.cpu0.iew.lsq.thread0.rescheduledLoads        94223                       # Number of loads that were rescheduled
system.cpu0.iew.lsq.thread0.cacheBlocked            6                       # Number of times an access to memory failed due to the cache being blocked
system.cpu0.iew.iewIdleCycles                       0                       # Number of cycles IEW is idle
system.cpu0.iew.iewSquashCycles                178916                       # Number of cycles IEW is squashing
system.cpu0.iew.iewBlockCycles                 525280                       # Number of cycles IEW is blocking
system.cpu0.iew.iewUnblockCycles                12158                       # Number of cycles IEW is unblocking
system.cpu0.iew.iewDispatchedInsts           25579983                       # Number of instructions dispatched to IQ
system.cpu0.iew.iewDispSquashedInsts            36881                       # Number of squashed instructions skipped by dispatch
system.cpu0.iew.iewDispLoadInsts              2458237                       # Number of dispatched load instructions
system.cpu0.iew.iewDispStoreInsts             2216294                       # Number of dispatched store instructions
system.cpu0.iew.iewDispNonSpecInsts              3924                       # Number of dispatched non-speculative instructions
system.cpu0.iew.iewIQFullEvents                     7                       # Number of times the IQ has become full, causing a stall
system.cpu0.iew.iewLSQFullEvents                    0                       # Number of times the LSQ has become full, causing a stall
system.cpu0.iew.memOrderViolationEvents           247                       # Number of memory order violations
system.cpu0.iew.predictedTakenIncorrect        101803                       # Number of branches that were predicted taken incorrectly
system.cpu0.iew.predictedNotTakenIncorrect        81755                       # Number of branches that were predicted not taken incorrectly
system.cpu0.iew.branchMispredicts              183558                       # Number of branch mispredicts detected at execute
system.cpu0.iew.iewExecutedInsts             21412160                       # Number of executed instructions
system.cpu0.iew.iewExecLoadInsts              2323566                       # Number of load instructions executed
system.cpu0.iew.iewExecSquashedInsts            59561                       # Number of squashed instructions skipped in execute
system.cpu0.iew.exec_swp                            0                       # number of swp insts executed
system.cpu0.iew.exec_nop                           21                       # number of nop insts executed
system.cpu0.iew.exec_refs                     4326644                       # number of memory reference insts executed
system.cpu0.iew.exec_branches                 3138873                       # Number of branches executed
system.cpu0.iew.exec_stores                   2003078                       # Number of stores executed
system.cpu0.iew.exec_rate                    1.102390                       # Inst execution rate
system.cpu0.iew.wb_sent                      21292284                       # cumulative count of insts sent to commit
system.cpu0.iew.wb_count                     21287636                       # cumulative count of insts written-back
system.cpu0.iew.wb_producers                 14389922                       # num instructions producing a value
system.cpu0.iew.wb_consumers                 35701167                       # num instructions consuming a value
system.cpu0.iew.wb_rate                      1.095979                       # insts written-back per cycle
system.cpu0.iew.wb_fanout                    0.403066                       # average fanout of values written-back
system.cpu0.commit.commitSquashedInsts        4928800                       # The number of squashed insts skipped by commit
system.cpu0.commit.commitNonSpecStalls           5881                       # The number of times commit has been forced to stall to communicate backwards
system.cpu0.commit.branchMispredicts           176823                       # The number of times a branch was mispredicted
system.cpu0.commit.committed_per_cycle::samples     18694974                       # Number of insts commited each cycle
system.cpu0.commit.committed_per_cycle::mean     1.104636                       # Number of insts commited each cycle
system.cpu0.commit.committed_per_cycle::stdev     0.941487                       # Number of insts commited each cycle
system.cpu0.commit.committed_per_cycle::underflows            0      0.00%      0.00% # Number of insts commited each cycle
system.cpu0.commit.committed_per_cycle::0      2959401     15.83%     15.83% # Number of insts commited each cycle
system.cpu0.commit.committed_per_cycle::1     13035527     69.73%     85.56% # Number of insts commited each cycle
system.cpu0.commit.committed_per_cycle::2      1624426      8.69%     94.25% # Number of insts commited each cycle
system.cpu0.commit.committed_per_cycle::3       511553      2.74%     96.98% # Number of insts commited each cycle
system.cpu0.commit.committed_per_cycle::4       298915      1.60%     98.58% # Number of insts commited each cycle
system.cpu0.commit.committed_per_cycle::5       105756      0.57%     99.15% # Number of insts commited each cycle
system.cpu0.commit.committed_per_cycle::6        65303      0.35%     99.50% # Number of insts commited each cycle
system.cpu0.commit.committed_per_cycle::7        36894      0.20%     99.69% # Number of insts commited each cycle
system.cpu0.commit.committed_per_cycle::8        57199      0.31%    100.00% # Number of insts commited each cycle
system.cpu0.commit.committed_per_cycle::overflows            0      0.00%    100.00% # Number of insts commited each cycle
system.cpu0.commit.committed_per_cycle::min_value            0                       # Number of insts commited each cycle
system.cpu0.commit.committed_per_cycle::max_value            8                       # Number of insts commited each cycle
system.cpu0.commit.committed_per_cycle::total     18694974                       # Number of insts commited each cycle
system.cpu0.commit.committedInsts            17753957                       # Number of instructions committed
system.cpu0.commit.committedOps              20651146                       # Number of ops (including micro ops) committed
system.cpu0.commit.swp_count                        0                       # Number of s/w prefetches committed
system.cpu0.commit.refs                       4000773                       # Number of memory references committed
system.cpu0.commit.loads                      2072551                       # Number of loads committed
system.cpu0.commit.membars                       1996                       # Number of memory barriers committed
system.cpu0.commit.branches                   3068331                       # Number of branches committed
system.cpu0.commit.fp_insts                        16                       # Number of committed floating point instructions.
system.cpu0.commit.int_insts                 18649054                       # Number of committed integer instructions.
system.cpu0.commit.function_calls              501326                       # Number of function calls committed.
system.cpu0.commit.op_class_0::No_OpClass            0      0.00%      0.00% # Class of committed instruction
system.cpu0.commit.op_class_0::IntAlu        16323465     79.04%     79.04% # Class of committed instruction
system.cpu0.commit.op_class_0::IntMult         314947      1.53%     80.57% # Class of committed instruction
system.cpu0.commit.op_class_0::IntDiv               0      0.00%     80.57% # Class of committed instruction
system.cpu0.commit.op_class_0::FloatAdd             0      0.00%     80.57% # Class of committed instruction
system.cpu0.commit.op_class_0::FloatCmp             0      0.00%     80.57% # Class of committed instruction
system.cpu0.commit.op_class_0::FloatCvt             0      0.00%     80.57% # Class of committed instruction
system.cpu0.commit.op_class_0::FloatMult            0      0.00%     80.57% # Class of committed instruction
system.cpu0.commit.op_class_0::FloatMultAcc            0      0.00%     80.57% # Class of committed instruction
system.cpu0.commit.op_class_0::FloatDiv             0      0.00%     80.57% # Class of committed instruction
system.cpu0.commit.op_class_0::FloatMisc            0      0.00%     80.57% # Class of committed instruction
system.cpu0.commit.op_class_0::FloatSqrt            0      0.00%     80.57% # Class of committed instruction
system.cpu0.commit.op_class_0::SimdAdd              0      0.00%     80.57% # Class of committed instruction
system.cpu0.commit.op_class_0::SimdAddAcc            0      0.00%     80.57% # Class of committed instruction
system.cpu0.commit.op_class_0::SimdAlu              0      0.00%     80.57% # Class of committed instruction
system.cpu0.commit.op_class_0::SimdCmp              0      0.00%     80.57% # Class of committed instruction
system.cpu0.commit.op_class_0::SimdCvt              0      0.00%     80.57% # Class of committed instruction
system.cpu0.commit.op_class_0::SimdMisc             0      0.00%     80.57% # Class of committed instruction
system.cpu0.commit.op_class_0::SimdMult             0      0.00%     80.57% # Class of committed instruction
system.cpu0.commit.op_class_0::SimdMultAcc            0      0.00%     80.57% # Class of committed instruction
system.cpu0.commit.op_class_0::SimdShift            0      0.00%     80.57% # Class of committed instruction
system.cpu0.commit.op_class_0::SimdShiftAcc            0      0.00%     80.57% # Class of committed instruction
system.cpu0.commit.op_class_0::SimdSqrt             0      0.00%     80.57% # Class of committed instruction
system.cpu0.commit.op_class_0::SimdFloatAdd            0      0.00%     80.57% # Class of committed instruction
system.cpu0.commit.op_class_0::SimdFloatAlu            0      0.00%     80.57% # Class of committed instruction
system.cpu0.commit.op_class_0::SimdFloatCmp            0      0.00%     80.57% # Class of committed instruction
system.cpu0.commit.op_class_0::SimdFloatCvt            0      0.00%     80.57% # Class of committed instruction
system.cpu0.commit.op_class_0::SimdFloatDiv            0      0.00%     80.57% # Class of committed instruction
system.cpu0.commit.op_class_0::SimdFloatMisc        11961      0.06%     80.63% # Class of committed instruction
system.cpu0.commit.op_class_0::SimdFloatMult            0      0.00%     80.63% # Class of committed instruction
system.cpu0.commit.op_class_0::SimdFloatMultAcc            0      0.00%     80.63% # Class of committed instruction
system.cpu0.commit.op_class_0::SimdFloatSqrt            0      0.00%     80.63% # Class of committed instruction
system.cpu0.commit.op_class_0::MemRead        2072551     10.04%     90.66% # Class of committed instruction
system.cpu0.commit.op_class_0::MemWrite       1928206      9.34%    100.00% # Class of committed instruction
system.cpu0.commit.op_class_0::FloatMemRead            0      0.00%    100.00% # Class of committed instruction
system.cpu0.commit.op_class_0::FloatMemWrite           16      0.00%    100.00% # Class of committed instruction
system.cpu0.commit.op_class_0::IprAccess            0      0.00%    100.00% # Class of committed instruction
system.cpu0.commit.op_class_0::InstPrefetch            0      0.00%    100.00% # Class of committed instruction
system.cpu0.commit.op_class_0::total         20651146                       # Class of committed instruction
system.cpu0.commit.bw_lim_events                57199                       # number cycles where commit BW limit reached
system.cpu0.rob.rob_reads                    44215349                       # The number of ROB reads
system.cpu0.rob.rob_writes                   51864919                       # The number of ROB writes
system.cpu0.timesIdled                           1569                       # Number of times that the entire CPU went into an idle state and unscheduled itself
system.cpu0.idleCycles                          24304                       # Total number of cycles that the CPU has spent unscheduled due to idling
system.cpu0.committedInsts                   17753957                       # Number of Instructions Simulated
system.cpu0.committedOps                     20651146                       # Number of Ops (including micro ops) Simulated
system.cpu0.cpi                              1.094032                       # CPI: Cycles Per Instruction
system.cpu0.cpi_total                        1.094032                       # CPI: Total CPI of All Threads
system.cpu0.ipc                              0.914050                       # IPC: Instructions Per Cycle
system.cpu0.ipc_total                        0.914050                       # IPC: Total IPC of All Threads
system.cpu0.int_regfile_reads                27135053                       # number of integer regfile reads
system.cpu0.int_regfile_writes               15672963                       # number of integer regfile writes
system.cpu0.fp_regfile_reads                      336                       # number of floating regfile reads
system.cpu0.cc_regfile_reads                 71164866                       # number of cc regfile reads
system.cpu0.cc_regfile_writes                12462569                       # number of cc regfile writes
system.cpu0.misc_regfile_reads                4206720                       # number of misc regfile reads
system.cpu0.misc_regfile_writes                  5861                       # number of misc regfile writes
system.cpu0.dcache.tags.pwrStateResidencyTicks::UNDEFINED  19423393000                       # Cumulative time (in ticks) in various power states
system.cpu0.dcache.tags.replacements             6227                       # number of replacements
system.cpu0.dcache.tags.tagsinuse          296.230431                       # Cycle average of tags in use
system.cpu0.dcache.tags.total_refs            3898063                       # Total number of references to valid blocks.
system.cpu0.dcache.tags.sampled_refs             6670                       # Sample count of references to valid blocks.
system.cpu0.dcache.tags.avg_refs           584.417241                       # Average number of references to valid blocks.
system.cpu0.dcache.tags.warmup_cycle                0                       # Cycle when the warmup percentage was hit.
system.cpu0.dcache.tags.occ_blocks::cpu0.data   296.230431                       # Average occupied blocks per requestor
system.cpu0.dcache.tags.occ_percent::cpu0.data     0.578575                       # Average percentage of cache occupancy
system.cpu0.dcache.tags.occ_percent::total     0.578575                       # Average percentage of cache occupancy
system.cpu0.dcache.tags.occ_task_id_blocks::1024          443                       # Occupied blocks per task id
system.cpu0.dcache.tags.age_task_id_blocks_1024::0           39                       # Occupied blocks per task id
system.cpu0.dcache.tags.age_task_id_blocks_1024::1            3                       # Occupied blocks per task id
system.cpu0.dcache.tags.age_task_id_blocks_1024::2           44                       # Occupied blocks per task id
system.cpu0.dcache.tags.age_task_id_blocks_1024::3          199                       # Occupied blocks per task id
system.cpu0.dcache.tags.age_task_id_blocks_1024::4          158                       # Occupied blocks per task id
system.cpu0.dcache.tags.occ_task_id_percent::1024     0.865234                       # Percentage of cache occupancy per task id
system.cpu0.dcache.tags.tag_accesses          7831621                       # Number of tag accesses
system.cpu0.dcache.tags.data_accesses         7831621                       # Number of data accesses
system.cpu0.dcache.pwrStateResidencyTicks::UNDEFINED  19423393000                       # Cumulative time (in ticks) in various power states
system.cpu0.dcache.ReadReq_hits::cpu0.data      2009776                       # number of ReadReq hits
system.cpu0.dcache.ReadReq_hits::total        2009776                       # number of ReadReq hits
system.cpu0.dcache.WriteReq_hits::cpu0.data      1884246                       # number of WriteReq hits
system.cpu0.dcache.WriteReq_hits::total       1884246                       # number of WriteReq hits
system.cpu0.dcache.LoadLockedReq_hits::cpu0.data         1983                       # number of LoadLockedReq hits
system.cpu0.dcache.LoadLockedReq_hits::total         1983                       # number of LoadLockedReq hits
system.cpu0.dcache.StoreCondReq_hits::cpu0.data         1986                       # number of StoreCondReq hits
system.cpu0.dcache.StoreCondReq_hits::total         1986                       # number of StoreCondReq hits
system.cpu0.dcache.demand_hits::cpu0.data      3894022                       # number of demand (read+write) hits
system.cpu0.dcache.demand_hits::total         3894022                       # number of demand (read+write) hits
system.cpu0.dcache.overall_hits::cpu0.data      3894022                       # number of overall hits
system.cpu0.dcache.overall_hits::total        3894022                       # number of overall hits
system.cpu0.dcache.ReadReq_misses::cpu0.data         7878                       # number of ReadReq misses
system.cpu0.dcache.ReadReq_misses::total         7878                       # number of ReadReq misses
system.cpu0.dcache.WriteReq_misses::cpu0.data         6566                       # number of WriteReq misses
system.cpu0.dcache.WriteReq_misses::total         6566                       # number of WriteReq misses
system.cpu0.dcache.LoadLockedReq_misses::cpu0.data           12                       # number of LoadLockedReq misses
system.cpu0.dcache.LoadLockedReq_misses::total           12                       # number of LoadLockedReq misses
system.cpu0.dcache.StoreCondReq_misses::cpu0.data            9                       # number of StoreCondReq misses
system.cpu0.dcache.StoreCondReq_misses::total            9                       # number of StoreCondReq misses
system.cpu0.dcache.demand_misses::cpu0.data        14444                       # number of demand (read+write) misses
system.cpu0.dcache.demand_misses::total         14444                       # number of demand (read+write) misses
system.cpu0.dcache.overall_misses::cpu0.data        14444                       # number of overall misses
system.cpu0.dcache.overall_misses::total        14444                       # number of overall misses
system.cpu0.dcache.ReadReq_miss_latency::cpu0.data    131666000                       # number of ReadReq miss cycles
system.cpu0.dcache.ReadReq_miss_latency::total    131666000                       # number of ReadReq miss cycles
system.cpu0.dcache.WriteReq_miss_latency::cpu0.data    139244998                       # number of WriteReq miss cycles
system.cpu0.dcache.WriteReq_miss_latency::total    139244998                       # number of WriteReq miss cycles
system.cpu0.dcache.LoadLockedReq_miss_latency::cpu0.data       186000                       # number of LoadLockedReq miss cycles
system.cpu0.dcache.LoadLockedReq_miss_latency::total       186000                       # number of LoadLockedReq miss cycles
system.cpu0.dcache.StoreCondReq_miss_latency::cpu0.data        63000                       # number of StoreCondReq miss cycles
system.cpu0.dcache.StoreCondReq_miss_latency::total        63000                       # number of StoreCondReq miss cycles
system.cpu0.dcache.demand_miss_latency::cpu0.data    270910998                       # number of demand (read+write) miss cycles
system.cpu0.dcache.demand_miss_latency::total    270910998                       # number of demand (read+write) miss cycles
system.cpu0.dcache.overall_miss_latency::cpu0.data    270910998                       # number of overall miss cycles
system.cpu0.dcache.overall_miss_latency::total    270910998                       # number of overall miss cycles
system.cpu0.dcache.ReadReq_accesses::cpu0.data      2017654                       # number of ReadReq accesses(hits+misses)
system.cpu0.dcache.ReadReq_accesses::total      2017654                       # number of ReadReq accesses(hits+misses)
system.cpu0.dcache.WriteReq_accesses::cpu0.data      1890812                       # number of WriteReq accesses(hits+misses)
system.cpu0.dcache.WriteReq_accesses::total      1890812                       # number of WriteReq accesses(hits+misses)
system.cpu0.dcache.LoadLockedReq_accesses::cpu0.data         1995                       # number of LoadLockedReq accesses(hits+misses)
system.cpu0.dcache.LoadLockedReq_accesses::total         1995                       # number of LoadLockedReq accesses(hits+misses)
system.cpu0.dcache.StoreCondReq_accesses::cpu0.data         1995                       # number of StoreCondReq accesses(hits+misses)
system.cpu0.dcache.StoreCondReq_accesses::total         1995                       # number of StoreCondReq accesses(hits+misses)
system.cpu0.dcache.demand_accesses::cpu0.data      3908466                       # number of demand (read+write) accesses
system.cpu0.dcache.demand_accesses::total      3908466                       # number of demand (read+write) accesses
system.cpu0.dcache.overall_accesses::cpu0.data      3908466                       # number of overall (read+write) accesses
system.cpu0.dcache.overall_accesses::total      3908466                       # number of overall (read+write) accesses
system.cpu0.dcache.ReadReq_miss_rate::cpu0.data     0.003905                       # miss rate for ReadReq accesses
system.cpu0.dcache.ReadReq_miss_rate::total     0.003905                       # miss rate for ReadReq accesses
system.cpu0.dcache.WriteReq_miss_rate::cpu0.data     0.003473                       # miss rate for WriteReq accesses
system.cpu0.dcache.WriteReq_miss_rate::total     0.003473                       # miss rate for WriteReq accesses
system.cpu0.dcache.LoadLockedReq_miss_rate::cpu0.data     0.006015                       # miss rate for LoadLockedReq accesses
system.cpu0.dcache.LoadLockedReq_miss_rate::total     0.006015                       # miss rate for LoadLockedReq accesses
system.cpu0.dcache.StoreCondReq_miss_rate::cpu0.data     0.004511                       # miss rate for StoreCondReq accesses
system.cpu0.dcache.StoreCondReq_miss_rate::total     0.004511                       # miss rate for StoreCondReq accesses
system.cpu0.dcache.demand_miss_rate::cpu0.data     0.003696                       # miss rate for demand accesses
system.cpu0.dcache.demand_miss_rate::total     0.003696                       # miss rate for demand accesses
system.cpu0.dcache.overall_miss_rate::cpu0.data     0.003696                       # miss rate for overall accesses
system.cpu0.dcache.overall_miss_rate::total     0.003696                       # miss rate for overall accesses
system.cpu0.dcache.ReadReq_avg_miss_latency::cpu0.data 16713.125159                       # average ReadReq miss latency
system.cpu0.dcache.ReadReq_avg_miss_latency::total 16713.125159                       # average ReadReq miss latency
system.cpu0.dcache.WriteReq_avg_miss_latency::cpu0.data 21206.975023                       # average WriteReq miss latency
system.cpu0.dcache.WriteReq_avg_miss_latency::total 21206.975023                       # average WriteReq miss latency
system.cpu0.dcache.LoadLockedReq_avg_miss_latency::cpu0.data        15500                       # average LoadLockedReq miss latency
system.cpu0.dcache.LoadLockedReq_avg_miss_latency::total        15500                       # average LoadLockedReq miss latency
system.cpu0.dcache.StoreCondReq_avg_miss_latency::cpu0.data         7000                       # average StoreCondReq miss latency
system.cpu0.dcache.StoreCondReq_avg_miss_latency::total         7000                       # average StoreCondReq miss latency
system.cpu0.dcache.demand_avg_miss_latency::cpu0.data 18755.953891                       # average overall miss latency
system.cpu0.dcache.demand_avg_miss_latency::total 18755.953891                       # average overall miss latency
system.cpu0.dcache.overall_avg_miss_latency::cpu0.data 18755.953891                       # average overall miss latency
system.cpu0.dcache.overall_avg_miss_latency::total 18755.953891                       # average overall miss latency
system.cpu0.dcache.blocked_cycles::no_mshrs          155                       # number of cycles access was blocked
system.cpu0.dcache.blocked_cycles::no_targets            0                       # number of cycles access was blocked
system.cpu0.dcache.blocked::no_mshrs                6                       # number of cycles access was blocked
system.cpu0.dcache.blocked::no_targets              0                       # number of cycles access was blocked
system.cpu0.dcache.avg_blocked_cycles::no_mshrs    25.833333                       # average number of cycles each access was blocked
system.cpu0.dcache.avg_blocked_cycles::no_targets          nan                       # average number of cycles each access was blocked
system.cpu0.dcache.writebacks::writebacks         2192                       # number of writebacks
system.cpu0.dcache.writebacks::total             2192                       # number of writebacks
system.cpu0.dcache.ReadReq_mshr_hits::cpu0.data         3485                       # number of ReadReq MSHR hits
system.cpu0.dcache.ReadReq_mshr_hits::total         3485                       # number of ReadReq MSHR hits
system.cpu0.dcache.WriteReq_mshr_hits::cpu0.data         4218                       # number of WriteReq MSHR hits
system.cpu0.dcache.WriteReq_mshr_hits::total         4218                       # number of WriteReq MSHR hits
system.cpu0.dcache.LoadLockedReq_mshr_hits::cpu0.data           12                       # number of LoadLockedReq MSHR hits
system.cpu0.dcache.LoadLockedReq_mshr_hits::total           12                       # number of LoadLockedReq MSHR hits
system.cpu0.dcache.demand_mshr_hits::cpu0.data         7703                       # number of demand (read+write) MSHR hits
system.cpu0.dcache.demand_mshr_hits::total         7703                       # number of demand (read+write) MSHR hits
system.cpu0.dcache.overall_mshr_hits::cpu0.data         7703                       # number of overall MSHR hits
system.cpu0.dcache.overall_mshr_hits::total         7703                       # number of overall MSHR hits
system.cpu0.dcache.ReadReq_mshr_misses::cpu0.data         4393                       # number of ReadReq MSHR misses
system.cpu0.dcache.ReadReq_mshr_misses::total         4393                       # number of ReadReq MSHR misses
system.cpu0.dcache.WriteReq_mshr_misses::cpu0.data         2348                       # number of WriteReq MSHR misses
system.cpu0.dcache.WriteReq_mshr_misses::total         2348                       # number of WriteReq MSHR misses
system.cpu0.dcache.StoreCondReq_mshr_misses::cpu0.data            9                       # number of StoreCondReq MSHR misses
system.cpu0.dcache.StoreCondReq_mshr_misses::total            9                       # number of StoreCondReq MSHR misses
system.cpu0.dcache.demand_mshr_misses::cpu0.data         6741                       # number of demand (read+write) MSHR misses
system.cpu0.dcache.demand_mshr_misses::total         6741                       # number of demand (read+write) MSHR misses
system.cpu0.dcache.overall_mshr_misses::cpu0.data         6741                       # number of overall MSHR misses
system.cpu0.dcache.overall_mshr_misses::total         6741                       # number of overall MSHR misses
system.cpu0.dcache.ReadReq_mshr_miss_latency::cpu0.data     72181000                       # number of ReadReq MSHR miss cycles
system.cpu0.dcache.ReadReq_mshr_miss_latency::total     72181000                       # number of ReadReq MSHR miss cycles
system.cpu0.dcache.WriteReq_mshr_miss_latency::cpu0.data     46167499                       # number of WriteReq MSHR miss cycles
system.cpu0.dcache.WriteReq_mshr_miss_latency::total     46167499                       # number of WriteReq MSHR miss cycles
system.cpu0.dcache.StoreCondReq_mshr_miss_latency::cpu0.data        45000                       # number of StoreCondReq MSHR miss cycles
system.cpu0.dcache.StoreCondReq_mshr_miss_latency::total        45000                       # number of StoreCondReq MSHR miss cycles
system.cpu0.dcache.demand_mshr_miss_latency::cpu0.data    118348499                       # number of demand (read+write) MSHR miss cycles
system.cpu0.dcache.demand_mshr_miss_latency::total    118348499                       # number of demand (read+write) MSHR miss cycles
system.cpu0.dcache.overall_mshr_miss_latency::cpu0.data    118348499                       # number of overall MSHR miss cycles
system.cpu0.dcache.overall_mshr_miss_latency::total    118348499                       # number of overall MSHR miss cycles
system.cpu0.dcache.ReadReq_mshr_miss_rate::cpu0.data     0.002177                       # mshr miss rate for ReadReq accesses
system.cpu0.dcache.ReadReq_mshr_miss_rate::total     0.002177                       # mshr miss rate for ReadReq accesses
system.cpu0.dcache.WriteReq_mshr_miss_rate::cpu0.data     0.001242                       # mshr miss rate for WriteReq accesses
system.cpu0.dcache.WriteReq_mshr_miss_rate::total     0.001242                       # mshr miss rate for WriteReq accesses
system.cpu0.dcache.StoreCondReq_mshr_miss_rate::cpu0.data     0.004511                       # mshr miss rate for StoreCondReq accesses
system.cpu0.dcache.StoreCondReq_mshr_miss_rate::total     0.004511                       # mshr miss rate for StoreCondReq accesses
system.cpu0.dcache.demand_mshr_miss_rate::cpu0.data     0.001725                       # mshr miss rate for demand accesses
system.cpu0.dcache.demand_mshr_miss_rate::total     0.001725                       # mshr miss rate for demand accesses
system.cpu0.dcache.overall_mshr_miss_rate::cpu0.data     0.001725                       # mshr miss rate for overall accesses
system.cpu0.dcache.overall_mshr_miss_rate::total     0.001725                       # mshr miss rate for overall accesses
system.cpu0.dcache.ReadReq_avg_mshr_miss_latency::cpu0.data 16430.912816                       # average ReadReq mshr miss latency
system.cpu0.dcache.ReadReq_avg_mshr_miss_latency::total 16430.912816                       # average ReadReq mshr miss latency
system.cpu0.dcache.WriteReq_avg_mshr_miss_latency::cpu0.data 19662.478279                       # average WriteReq mshr miss latency
system.cpu0.dcache.WriteReq_avg_mshr_miss_latency::total 19662.478279                       # average WriteReq mshr miss latency
system.cpu0.dcache.StoreCondReq_avg_mshr_miss_latency::cpu0.data         5000                       # average StoreCondReq mshr miss latency
system.cpu0.dcache.StoreCondReq_avg_mshr_miss_latency::total         5000                       # average StoreCondReq mshr miss latency
system.cpu0.dcache.demand_avg_mshr_miss_latency::cpu0.data 17556.519656                       # average overall mshr miss latency
system.cpu0.dcache.demand_avg_mshr_miss_latency::total 17556.519656                       # average overall mshr miss latency
system.cpu0.dcache.overall_avg_mshr_miss_latency::cpu0.data 17556.519656                       # average overall mshr miss latency
system.cpu0.dcache.overall_avg_mshr_miss_latency::total 17556.519656                       # average overall mshr miss latency
system.cpu0.icache.tags.pwrStateResidencyTicks::UNDEFINED  19423393000                       # Cumulative time (in ticks) in various power states
system.cpu0.icache.tags.replacements            41169                       # number of replacements
system.cpu0.icache.tags.tagsinuse          423.230091                       # Cycle average of tags in use
system.cpu0.icache.tags.total_refs            3181472                       # Total number of references to valid blocks.
system.cpu0.icache.tags.sampled_refs            41654                       # Sample count of references to valid blocks.
system.cpu0.icache.tags.avg_refs            76.378547                       # Average number of references to valid blocks.
system.cpu0.icache.tags.warmup_cycle                0                       # Cycle when the warmup percentage was hit.
system.cpu0.icache.tags.occ_blocks::cpu0.inst   423.230091                       # Average occupied blocks per requestor
system.cpu0.icache.tags.occ_percent::cpu0.inst     0.826621                       # Average percentage of cache occupancy
system.cpu0.icache.tags.occ_percent::total     0.826621                       # Average percentage of cache occupancy
system.cpu0.icache.tags.occ_task_id_blocks::1024          485                       # Occupied blocks per task id
system.cpu0.icache.tags.age_task_id_blocks_1024::0          118                       # Occupied blocks per task id
system.cpu0.icache.tags.age_task_id_blocks_1024::1            1                       # Occupied blocks per task id
system.cpu0.icache.tags.age_task_id_blocks_1024::2            7                       # Occupied blocks per task id
system.cpu0.icache.tags.age_task_id_blocks_1024::3          203                       # Occupied blocks per task id
system.cpu0.icache.tags.age_task_id_blocks_1024::4          156                       # Occupied blocks per task id
system.cpu0.icache.tags.occ_task_id_percent::1024     0.947266                       # Percentage of cache occupancy per task id
system.cpu0.icache.tags.tag_accesses          6488560                       # Number of tag accesses
system.cpu0.icache.tags.data_accesses         6488560                       # Number of data accesses
system.cpu0.icache.pwrStateResidencyTicks::UNDEFINED  19423393000                       # Cumulative time (in ticks) in various power states
system.cpu0.icache.ReadReq_hits::cpu0.inst      3181472                       # number of ReadReq hits
system.cpu0.icache.ReadReq_hits::total        3181472                       # number of ReadReq hits
system.cpu0.icache.demand_hits::cpu0.inst      3181472                       # number of demand (read+write) hits
system.cpu0.icache.demand_hits::total         3181472                       # number of demand (read+write) hits
system.cpu0.icache.overall_hits::cpu0.inst      3181472                       # number of overall hits
system.cpu0.icache.overall_hits::total        3181472                       # number of overall hits
system.cpu0.icache.ReadReq_misses::cpu0.inst        41981                       # number of ReadReq misses
system.cpu0.icache.ReadReq_misses::total        41981                       # number of ReadReq misses
system.cpu0.icache.demand_misses::cpu0.inst        41981                       # number of demand (read+write) misses
system.cpu0.icache.demand_misses::total         41981                       # number of demand (read+write) misses
system.cpu0.icache.overall_misses::cpu0.inst        41981                       # number of overall misses
system.cpu0.icache.overall_misses::total        41981                       # number of overall misses
system.cpu0.icache.ReadReq_miss_latency::cpu0.inst    720298000                       # number of ReadReq miss cycles
system.cpu0.icache.ReadReq_miss_latency::total    720298000                       # number of ReadReq miss cycles
system.cpu0.icache.demand_miss_latency::cpu0.inst    720298000                       # number of demand (read+write) miss cycles
system.cpu0.icache.demand_miss_latency::total    720298000                       # number of demand (read+write) miss cycles
system.cpu0.icache.overall_miss_latency::cpu0.inst    720298000                       # number of overall miss cycles
system.cpu0.icache.overall_miss_latency::total    720298000                       # number of overall miss cycles
system.cpu0.icache.ReadReq_accesses::cpu0.inst      3223453                       # number of ReadReq accesses(hits+misses)
system.cpu0.icache.ReadReq_accesses::total      3223453                       # number of ReadReq accesses(hits+misses)
system.cpu0.icache.demand_accesses::cpu0.inst      3223453                       # number of demand (read+write) accesses
system.cpu0.icache.demand_accesses::total      3223453                       # number of demand (read+write) accesses
system.cpu0.icache.overall_accesses::cpu0.inst      3223453                       # number of overall (read+write) accesses
system.cpu0.icache.overall_accesses::total      3223453                       # number of overall (read+write) accesses
system.cpu0.icache.ReadReq_miss_rate::cpu0.inst     0.013024                       # miss rate for ReadReq accesses
system.cpu0.icache.ReadReq_miss_rate::total     0.013024                       # miss rate for ReadReq accesses
system.cpu0.icache.demand_miss_rate::cpu0.inst     0.013024                       # miss rate for demand accesses
system.cpu0.icache.demand_miss_rate::total     0.013024                       # miss rate for demand accesses
system.cpu0.icache.overall_miss_rate::cpu0.inst     0.013024                       # miss rate for overall accesses
system.cpu0.icache.overall_miss_rate::total     0.013024                       # miss rate for overall accesses
system.cpu0.icache.ReadReq_avg_miss_latency::cpu0.inst 17157.714204                       # average ReadReq miss latency
system.cpu0.icache.ReadReq_avg_miss_latency::total 17157.714204                       # average ReadReq miss latency
system.cpu0.icache.demand_avg_miss_latency::cpu0.inst 17157.714204                       # average overall miss latency
[...]
system.l2.ReadSharedReq_mshr_miss_latency::total      9758000                       # number of ReadSharedReq MSHR miss cycles
system.l2.demand_mshr_miss_latency::cpu0.inst     38509500                       # number of demand (read+write) MSHR miss cycles
system.l2.demand_mshr_miss_latency::cpu0.data     23885500                       # number of demand (read+write) MSHR miss cycles
system.l2.demand_mshr_miss_latency::cpu1.inst      5163500                       # number of demand (read+write) MSHR miss cycles
system.l2.demand_mshr_miss_latency::cpu1.data      4419000                       # number of demand (read+write) MSHR miss cycles
system.l2.demand_mshr_miss_latency::cpu2.inst      1802000                       # number of demand (read+write) MSHR miss cycles
system.l2.demand_mshr_miss_latency::cpu2.data      6267000                       # number of demand (read+write) MSHR miss cycles
system.l2.demand_mshr_miss_latency::total     80046500                       # number of demand (read+write) MSHR miss cycles
system.l2.overall_mshr_miss_latency::cpu0.inst     38509500                       # number of overall MSHR miss cycles
system.l2.overall_mshr_miss_latency::cpu0.data     23885500                       # number of overall MSHR miss cycles
system.l2.overall_mshr_miss_latency::cpu1.inst      5163500                       # number of overall MSHR miss cycles
system.l2.overall_mshr_miss_latency::cpu1.data      4419000                       # number of overall MSHR miss cycles
system.l2.overall_mshr_miss_latency::cpu2.inst      1802000                       # number of overall MSHR miss cycles
system.l2.overall_mshr_miss_latency::cpu2.data      6267000                       # number of overall MSHR miss cycles
system.l2.overall_mshr_miss_latency::total     80046500                       # number of overall MSHR miss cycles
system.l2.ReadExReq_mshr_miss_rate::cpu0.data     0.134283                       # mshr miss rate for ReadExReq accesses
system.l2.ReadExReq_mshr_miss_rate::cpu1.data     0.787500                       # mshr miss rate for ReadExReq accesses
system.l2.ReadExReq_mshr_miss_rate::cpu2.data     0.946903                       # mshr miss rate for ReadExReq accesses
system.l2.ReadExReq_mshr_miss_rate::total     0.191710                       # mshr miss rate for ReadExReq accesses
system.l2.ReadCleanReq_mshr_miss_rate::cpu0.inst     0.018005                       # mshr miss rate for ReadCleanReq accesses
system.l2.ReadCleanReq_mshr_miss_rate::cpu1.inst     0.005208                       # mshr miss rate for ReadCleanReq accesses
system.l2.ReadCleanReq_mshr_miss_rate::cpu2.inst     0.001692                       # mshr miss rate for ReadCleanReq accesses
system.l2.ReadCleanReq_mshr_miss_rate::total     0.010840                       # mshr miss rate for ReadCleanReq accesses
system.l2.ReadSharedReq_mshr_miss_rate::cpu0.data     0.035446                       # mshr miss rate for ReadSharedReq accesses
system.l2.ReadSharedReq_mshr_miss_rate::cpu1.data     0.188525                       # mshr miss rate for ReadSharedReq accesses
system.l2.ReadSharedReq_mshr_miss_rate::cpu2.data     0.121739                       # mshr miss rate for ReadSharedReq accesses
system.l2.ReadSharedReq_mshr_miss_rate::total     0.041806                       # mshr miss rate for ReadSharedReq accesses
system.l2.demand_mshr_miss_rate::cpu0.inst     0.018005                       # mshr miss rate for demand accesses
system.l2.demand_mshr_miss_rate::cpu0.data     0.070255                       # mshr miss rate for demand accesses
system.l2.demand_mshr_miss_rate::cpu1.inst     0.005208                       # mshr miss rate for demand accesses
system.l2.demand_mshr_miss_rate::cpu1.data     0.425743                       # mshr miss rate for demand accesses
system.l2.demand_mshr_miss_rate::cpu2.inst     0.001692                       # mshr miss rate for demand accesses
system.l2.demand_mshr_miss_rate::cpu2.data     0.530702                       # mshr miss rate for demand accesses
system.l2.demand_mshr_miss_rate::total       0.017524                       # mshr miss rate for demand accesses
system.l2.overall_mshr_miss_rate::cpu0.inst     0.018005                       # mshr miss rate for overall accesses
system.l2.overall_mshr_miss_rate::cpu0.data     0.070255                       # mshr miss rate for overall accesses
system.l2.overall_mshr_miss_rate::cpu1.inst     0.005208                       # mshr miss rate for overall accesses
system.l2.overall_mshr_miss_rate::cpu1.data     0.425743                       # mshr miss rate for overall accesses
system.l2.overall_mshr_miss_rate::cpu2.inst     0.001692                       # mshr miss rate for overall accesses
system.l2.overall_mshr_miss_rate::cpu2.data     0.530702                       # mshr miss rate for overall accesses
system.l2.overall_mshr_miss_rate::total      0.017524                       # mshr miss rate for overall accesses
system.l2.ReadExReq_avg_mshr_miss_latency::cpu0.data 51540.192926                       # average ReadExReq mshr miss latency
system.l2.ReadExReq_avg_mshr_miss_latency::cpu1.data 51388.888889                       # average ReadExReq mshr miss latency
system.l2.ReadExReq_avg_mshr_miss_latency::cpu2.data 51841.121495                       # average ReadExReq mshr miss latency
system.l2.ReadExReq_avg_mshr_miss_latency::total 51587.318087                       # average ReadExReq mshr miss latency
system.l2.ReadCleanReq_avg_mshr_miss_latency::cpu0.inst        51346                       # average ReadCleanReq mshr miss latency
system.l2.ReadCleanReq_avg_mshr_miss_latency::cpu1.inst 51123.762376                       # average ReadCleanReq mshr miss latency
system.l2.ReadCleanReq_avg_mshr_miss_latency::cpu2.inst 51485.714286                       # average ReadCleanReq mshr miss latency
system.l2.ReadCleanReq_avg_mshr_miss_latency::total 51326.185102                       # average ReadCleanReq mshr miss latency
system.l2.ReadSharedReq_avg_mshr_miss_latency::cpu0.data 52029.801325                       # average ReadSharedReq mshr miss latency
system.l2.ReadSharedReq_avg_mshr_miss_latency::cpu1.data 51369.565217                       # average ReadSharedReq mshr miss latency
system.l2.ReadSharedReq_avg_mshr_miss_latency::cpu2.data 51428.571429                       # average ReadSharedReq mshr miss latency
system.l2.ReadSharedReq_avg_mshr_miss_latency::total 51904.255319                       # average ReadSharedReq mshr miss latency
system.l2.demand_avg_mshr_miss_latency::cpu0.inst        51346                       # average overall mshr miss latency
system.l2.demand_avg_mshr_miss_latency::cpu0.data 51700.216450                       # average overall mshr miss latency
system.l2.demand_avg_mshr_miss_latency::cpu1.inst 51123.762376                       # average overall mshr miss latency
system.l2.demand_avg_mshr_miss_latency::cpu1.data 51383.720930                       # average overall mshr miss latency
system.l2.demand_avg_mshr_miss_latency::cpu2.inst 51485.714286                       # average overall mshr miss latency
system.l2.demand_avg_mshr_miss_latency::cpu2.data 51793.388430                       # average overall mshr miss latency
system.l2.demand_avg_mshr_miss_latency::total 51476.848875                       # average overall mshr miss latency
system.l2.overall_avg_mshr_miss_latency::cpu0.inst        51346                       # average overall mshr miss latency
system.l2.overall_avg_mshr_miss_latency::cpu0.data 51700.216450                       # average overall mshr miss latency
system.l2.overall_avg_mshr_miss_latency::cpu1.inst 51123.762376                       # average overall mshr miss latency
system.l2.overall_avg_mshr_miss_latency::cpu1.data 51383.720930                       # average overall mshr miss latency
system.l2.overall_avg_mshr_miss_latency::cpu2.inst 51485.714286                       # average overall mshr miss latency
system.l2.overall_avg_mshr_miss_latency::cpu2.data 51793.388430                       # average overall mshr miss latency
system.l2.overall_avg_mshr_miss_latency::total 51476.848875                       # average overall mshr miss latency
system.membus.snoop_filter.tot_requests          1862                       # Total number of requests made to the snoop filter.
system.membus.snoop_filter.hit_single_requests           99                       # Number of requests hitting in the snoop filter with a single holder of the requested data.
system.membus.snoop_filter.hit_multi_requests            0                       # Number of requests hitting in the snoop filter with multiple (>1) holders of the requested data.
system.membus.snoop_filter.tot_snoops               0                       # Total number of snoops made to the snoop filter.
system.membus.snoop_filter.hit_single_snoops            0                       # Number of snoops hitting in the snoop filter with a single holder of the requested data.
system.membus.snoop_filter.hit_multi_snoops            0                       # Number of snoops hitting in the snoop filter with multiple (>1) holders of the requested data.
system.membus.pwrStateResidencyTicks::UNDEFINED  19423393000                       # Cumulative time (in ticks) in various power states
system.membus.trans_dist::ReadResp               1074                       # Transaction distribution
system.membus.trans_dist::UpgradeReq               75                       # Transaction distribution
system.membus.trans_dist::SCUpgradeReq             24                       # Transaction distribution
system.membus.trans_dist::ReadExReq               481                       # Transaction distribution
system.membus.trans_dist::ReadExResp              481                       # Transaction distribution
system.membus.trans_dist::ReadSharedReq          1074                       # Transaction distribution
system.membus.pkt_count_system.l2.mem_side::system.physmem.port         3209                       # Packet count per connected master and slave (bytes)
system.membus.pkt_count::total                   3209                       # Packet count per connected master and slave (bytes)
system.membus.pkt_size_system.l2.mem_side::system.physmem.port        99520                       # Cumulative packet size per connected master and slave (bytes)
system.membus.pkt_size::total                   99520                       # Cumulative packet size per connected master and slave (bytes)
system.membus.snoops                               99                       # Total snoops (count)
system.membus.snoopTraffic                          0                       # Total snoop traffic (bytes)
system.membus.snoop_fanout::samples              1862                       # Request fanout histogram
system.membus.snoop_fanout::mean                    0                       # Request fanout histogram
system.membus.snoop_fanout::stdev                   0                       # Request fanout histogram
system.membus.snoop_fanout::underflows              0      0.00%      0.00% # Request fanout histogram
system.membus.snoop_fanout::0                    1862    100.00%    100.00% # Request fanout histogram
system.membus.snoop_fanout::1                       0      0.00%    100.00% # Request fanout histogram
system.membus.snoop_fanout::overflows               0      0.00%    100.00% # Request fanout histogram
system.membus.snoop_fanout::min_value               0                       # Request fanout histogram
system.membus.snoop_fanout::max_value               0                       # Request fanout histogram
system.membus.snoop_fanout::total                1862                       # Request fanout histogram
system.membus.reqLayer0.occupancy             2616784                       # Layer occupancy (ticks)
system.membus.reqLayer0.utilization               0.0                       # Layer utilization (%)
system.membus.respLayer1.occupancy            7775000                       # Layer occupancy (ticks)
system.membus.respLayer1.utilization              0.0                       # Layer utilization (%)
system.tol2bus.snoop_filter.tot_requests       176179                       # Total number of requests made to the snoop filter.
system.tol2bus.snoop_filter.hit_single_requests        45486                       # Number of requests hitting in the snoop filter with a single holder of the requested data.
system.tol2bus.snoop_filter.hit_multi_requests       101946                       # Number of requests hitting in the snoop filter with multiple (>1) holders of the requested data.
system.tol2bus.snoop_filter.tot_snoops              0                       # Total number of snoops made to the snoop filter.
system.tol2bus.snoop_filter.hit_single_snoops            0                       # Number of snoops hitting in the snoop filter with a single holder of the requested data.
system.tol2bus.snoop_filter.hit_multi_snoops            0                       # Number of snoops hitting in the snoop filter with multiple (>1) holders of the requested data.
system.tol2bus.pwrStateResidencyTicks::UNDEFINED  19423393000                       # Cumulative time (in ticks) in various power states
system.tol2bus.trans_dist::ReadResp             86460                       # Transaction distribution
system.tol2bus.trans_dist::WritebackDirty         2224                       # Transaction distribution
system.tol2bus.trans_dist::WritebackClean        80751                       # Transaction distribution
system.tol2bus.trans_dist::CleanEvict            4126                       # Transaction distribution
system.tol2bus.trans_dist::UpgradeReq              81                       # Transaction distribution
system.tol2bus.trans_dist::SCUpgradeReq            24                       # Transaction distribution
system.tol2bus.trans_dist::UpgradeResp            105                       # Transaction distribution
system.tol2bus.trans_dist::ReadExReq             2513                       # Transaction distribution
system.tol2bus.trans_dist::ReadExResp            2513                       # Transaction distribution
system.tol2bus.trans_dist::ReadCleanReq         81731                       # Transaction distribution
system.tol2bus.trans_dist::ReadSharedReq         4729                       # Transaction distribution
system.tol2bus.pkt_count_system.cpu0.icache.mem_side::system.l2.cpu_side       124477                       # Packet count per connected master and slave (bytes)
system.tol2bus.pkt_count_system.cpu0.dcache.mem_side::system.l2.cpu_side        19558                       # Packet count per connected master and slave (bytes)
system.tol2bus.pkt_count_system.cpu1.icache.mem_side::system.l2.cpu_side        57929                       # Packet count per connected master and slave (bytes)
system.tol2bus.pkt_count_system.cpu1.dcache.mem_side::system.l2.cpu_side          540                       # Packet count per connected master and slave (bytes)
system.tol2bus.pkt_count_system.cpu2.icache.mem_side::system.l2.cpu_side        61807                       # Packet count per connected master and slave (bytes)
system.tol2bus.pkt_count_system.cpu2.dcache.mem_side::system.l2.cpu_side          611                       # Packet count per connected master and slave (bytes)
system.tol2bus.pkt_count::total                264922                       # Packet count per connected master and slave (bytes)
system.tol2bus.pkt_size_system.cpu0.icache.mem_side::system.l2.cpu_side      5300672                       # Cumulative packet size per connected master and slave (bytes)
system.tol2bus.pkt_size_system.cpu0.dcache.mem_side::system.l2.cpu_side       561152                       # Cumulative packet size per connected master and slave (bytes)
system.tol2bus.pkt_size_system.cpu1.icache.mem_side::system.l2.cpu_side      2466368                       # Cumulative packet size per connected master and slave (bytes)
system.tol2bus.pkt_size_system.cpu1.dcache.mem_side::system.l2.cpu_side        14336                       # Cumulative packet size per connected master and slave (bytes)
system.tol2bus.pkt_size_system.cpu2.icache.mem_side::system.l2.cpu_side      2631808                       # Cumulative packet size per connected master and slave (bytes)
system.tol2bus.pkt_size_system.cpu2.dcache.mem_side::system.l2.cpu_side        15232                       # Cumulative packet size per connected master and slave (bytes)
system.tol2bus.pkt_size::total               10989568                       # Cumulative packet size per connected master and slave (bytes)
system.tol2bus.snoops                             335                       # Total snoops (count)
system.tol2bus.snoopTraffic                     15104                       # Total snoop traffic (bytes)
system.tol2bus.snoop_fanout::samples            89078                       # Request fanout histogram
system.tol2bus.snoop_fanout::mean            1.348953                       # Request fanout histogram
system.tol2bus.snoop_fanout::stdev           1.272300                       # Request fanout histogram
system.tol2bus.snoop_fanout::underflows             0      0.00%      0.00% # Request fanout histogram
system.tol2bus.snoop_fanout::0                  28748     32.27%     32.27% # Request fanout histogram
system.tol2bus.snoop_fanout::1                  17966     20.17%     52.44% # Request fanout histogram
system.tol2bus.snoop_fanout::2                  35895     40.30%     92.74% # Request fanout histogram
system.tol2bus.snoop_fanout::3                    233      0.26%     93.00% # Request fanout histogram
system.tol2bus.snoop_fanout::4                   1473      1.65%     94.65% # Request fanout histogram
system.tol2bus.snoop_fanout::5                   4763      5.35%    100.00% # Request fanout histogram
system.tol2bus.snoop_fanout::6                      0      0.00%    100.00% # Request fanout histogram
system.tol2bus.snoop_fanout::overflows              0      0.00%    100.00% # Request fanout histogram
system.tol2bus.snoop_fanout::min_value              0                       # Request fanout histogram
system.tol2bus.snoop_fanout::max_value              5                       # Request fanout histogram
system.tol2bus.snoop_fanout::total              89078                       # Request fanout histogram
system.tol2bus.reqLayer0.occupancy          171064500                       # Layer occupancy (ticks)
system.tol2bus.reqLayer0.utilization              0.9                       # Layer utilization (%)
system.tol2bus.respLayer0.occupancy          62494473                       # Layer occupancy (ticks)
system.tol2bus.respLayer0.utilization             0.3                       # Layer utilization (%)
system.tol2bus.respLayer1.occupancy          10099469                       # Layer occupancy (ticks)
system.tol2bus.respLayer1.utilization             0.1                       # Layer utilization (%)
system.tol2bus.respLayer4.occupancy          29105964                       # Layer occupancy (ticks)
system.tol2bus.respLayer4.utilization             0.1                       # Layer utilization (%)
system.tol2bus.respLayer5.occupancy            382490                       # Layer occupancy (ticks)
system.tol2bus.respLayer5.utilization             0.0                       # Layer utilization (%)
system.tol2bus.respLayer8.occupancy          31051451                       # Layer occupancy (ticks)
system.tol2bus.respLayer8.utilization             0.2                       # Layer utilization (%)
system.tol2bus.respLayer9.occupancy            456490                       # Layer occupancy (ticks)
system.tol2bus.respLayer9.utilization             0.0                       # Layer utilization (%)

---------- End Simulation Statistics   ----------
